/*---------------------------------------------------------------------------*\
  =========                 |
  \\      /  F ield         | OpenFOAM: The Open Source CFD Toolbox
   \\    /   O peration     | Website:  https://openfoam.org
    \\  /    A nd           | Version:  7
     \\/     M anipulation  |
\*---------------------------------------------------------------------------*/
Build  : 7
Exec   : checkMesh
Date   : Mar 14 2021
Time   : 12:37:11
Host   : "lucamignozzi-ROG-Zephyrus-G14-GA401IV-GA401IV"
PID    : 9821
I/O    : uncollated
Case   : /home/lucamignozzi/Desktop/Skyward/computational-fluid-dynamics/meshSnappy
nProcs : 1
sigFpe : Enabling floating point exception trapping (FOAM_SIGFPE).
fileModificationChecking : Monitoring run-time modified files using timeStampMaster (fileModificationSkew 10)
allowSystemOperations : Allowing user-supplied system call operations

// * * * * * * * * * * * * * * * * * * * * * * * * * * * * * * * * * * * * * //
Create time

Create polyMesh for time = 1

Time = 1

Mesh stats
    points:           4580252
    faces:            13265176
    internal faces:   13119554
    cells:            4342765
    faces per cell:   6.07556
    boundary patches: 4
    point zones:      0
    face zones:       0
    cell zones:       0

Overall number of cells of each type:
    hexahedra:     4233858
    prisms:        48
    wedges:        0
    pyramids:      120
    tet wedges:    0
    tetrahedra:    48
    polyhedra:     108691
    Breakdown of polyhedra by number of faces:
        faces   number of cells
            6   25932
            8   19
            9   56306
           11   1
           12   26151
           14   1
           15   281

Checking topology...
    Boundary definition OK.
    Cell to face addressing OK.
    Point usage OK.
    Upper triangular ordering OK.
    Face vertices OK.
    Number of regions: 1 (OK).

Checking patch topology for multiply connected surfaces...
                   Patch    Faces   Points                  Surface topology
                   inlet       96      101  ok (non-closed singly connected)
                  outlet       96      101  ok (non-closed singly connected)
                   walls      896      928  ok (non-closed singly connected)
                  rocket   144534   144663      ok (closed singly connected)

Checking geometry...
    Overall domain bounding box (-3 -2.99405 -2.9992) (13 2.99408 2.99233)
    Mesh has 3 geometric (non-empty/wedge) directions (1 1 1)
    Mesh has 3 solution (non-empty) directions (1 1 1)
    Boundary openness (-6.4368e-17 -3.77176e-17 1.18358e-16) OK.
    Max cell openness = 3.49102e-16 OK.
    Max aspect ratio = 5.12383 OK.
    Minimum face area = 5.75348e-06. Maximum face area = 0.500654.  Face area magnitudes OK.
    Min volume = 1.41529e-08. Max volume = 0.257016.  Total volume = 447.696.  Cell volumes OK.
    Mesh non-orthogonality Max: 37.3242 average: 4.53627
    Non-orthogonality check OK.
    Face pyramids OK.
    Max skewness = 1.00376 OK.
    Coupled point location match (average 0) OK.

Mesh OK.

Time = 2

Mesh stats
    points:           4542442
    faces:            13224583
    internal faces:   13119554
    cells:            4342765
    faces per cell:   6.06621
    boundary patches: 4
    point zones:      0
    face zones:       0
    cell zones:       0

Overall number of cells of each type:
    hexahedra:     4195808
    prisms:        33559
    wedges:        0
    pyramids:      120
    tet wedges:    19
    tetrahedra:    48
    polyhedra:     113211
    Breakdown of polyhedra by number of faces:
        faces   number of cells
            4   2419
            5   2101
            6   25950
            7   18
            8   33
            9   56256
           10   1
           12   26151
           14   1
           15   281

Checking topology...
    Boundary definition OK.
    Cell to face addressing OK.
    Point usage OK.
    Upper triangular ordering OK.
    Face vertices OK.
    Number of regions: 1 (OK).

Checking patch topology for multiply connected surfaces...
                   Patch    Faces   Points                  Surface topology
                   inlet       96      101  ok (non-closed singly connected)
                  outlet       96      101  ok (non-closed singly connected)
                   walls      896      928  ok (non-closed singly connected)
                  rocket   103941   106853      ok (closed singly connected)

Checking geometry...
    Overall domain bounding box (-3 -2.99405 -2.9992) (13 2.99408 2.99233)
    Mesh has 3 geometric (non-empty/wedge) directions (1 1 1)
    Mesh has 3 solution (non-empty) directions (1 1 1)
    Boundary openness (-2.25205e-18 5.6153e-17 9.57297e-17) OK.
    Max cell openness = 3.2948e-16 OK.
    Max aspect ratio = 5.12384 OK.
    Minimum face area = 1.63797e-08. Maximum face area = 0.500653.  Face area magnitudes OK.
    Min volume = 2.38485e-09. Max volume = 0.257026.  Total volume = 447.696.  Cell volumes OK.
    Mesh non-orthogonality Max: 48.7436 average: 4.70843
    Non-orthogonality check OK.
 ***Error in face pyramids: 2 faces are incorrectly oriented.
  <<Writing 2 faces with incorrect orientation to set wrongOrientedFaces
 ***Max skewness = 9.34433, 21 highly skew faces detected which may impair the quality of the results
  <<Writing 21 skew faces to set skewFaces
    Coupled point location match (average 0) OK.

Failed 2 mesh checks.

Time = 3

Mesh stats
    points:           5610972
    faces:            16371603
    internal faces:   16266574
    cells:            5382175
    faces per cell:   6.06412
    boundary patches: 4
    point zones:      0
    face zones:       0
    cell zones:       0

Overall number of cells of each type:
    hexahedra:     5187968
    prisms:        33559
    wedges:        0
    pyramids:      120
    tet wedges:    19
    tetrahedra:    48
    polyhedra:     160461
    Breakdown of polyhedra by number of faces:
        faces   number of cells
            4   2419
            5   2341
            6   26040
            7   36158
            8   10693
            9   56376
           10   1
           12   26151
           14   1
           15   281

Checking topology...
    Boundary definition OK.
    Cell to face addressing OK.
    Point usage OK.
    Upper triangular ordering OK.
    Face vertices OK.
    Number of regions: 1 (OK).

Checking patch topology for multiply connected surfaces...
                   Patch    Faces   Points                  Surface topology
                   inlet       96      101  ok (non-closed singly connected)
                  outlet       96      101  ok (non-closed singly connected)
                   walls      896      928  ok (non-closed singly connected)
                  rocket   103941   106853      ok (closed singly connected)

Checking geometry...
    Overall domain bounding box (-3 -2.99405 -2.9992) (13 2.99408 2.99233)
    Mesh has 3 geometric (non-empty/wedge) directions (1 1 1)
    Mesh has 3 solution (non-empty) directions (1 1 1)
    Boundary openness (-1.27046e-17 4.69997e-17 4.51928e-17) OK.
 ***High aspect ratio cells found, Max aspect ratio: 2.90889e+96, number of cells 14
  <<Writing 14 cells with high aspect ratio to set highAspectRatioCells
    Minimum face area = 3.88917e-10. Maximum face area = 0.50066.  Face area magnitudes OK.
 ***Zero or negative cell volume detected.  Minimum negative volume: -1.08142e-10, Number of negative volume cells: 14
  <<Writing 14 zero volume cells to set zeroVolumeCells
    Mesh non-orthogonality Max: 166.201 average: 5.86264
   *Number of severely non-orthogonal (> 70 degrees) faces: 3090.
 ***Number of non-orthogonality errors: 124.
  <<Writing 3214 non-orthogonal faces to set nonOrthoFaces
 ***Error in face pyramids: 836 faces are incorrectly oriented.
  <<Writing 792 faces with incorrect orientation to set wrongOrientedFaces
 ***Max skewness = 796.607, 164 highly skew faces detected which may impair the quality of the results
  <<Writing 164 skew faces to set skewFaces
    Coupled point location match (average 0) OK.

Failed 5 mesh checks.

End

