/*---------------------------------------------------------------------------*\
  =========                 |
  \\      /  F ield         | OpenFOAM: The Open Source CFD Toolbox
   \\    /   O peration     | Website:  https://openfoam.org
    \\  /    A nd           | Version:  7
     \\/     M anipulation  |
\*---------------------------------------------------------------------------*/
Build  : 7
Exec   : checkMesh
Date   : Mar 13 2021
Time   : 12:50:10
Host   : "lucamignozzi-ROG-Zephyrus-G14-GA401IV-GA401IV"
PID    : 22932
I/O    : uncollated
Case   : /home/lucamignozzi/Desktop/Skyward/computational-fluid-dynamics/meshSnappy
nProcs : 1
sigFpe : Enabling floating point exception trapping (FOAM_SIGFPE).
fileModificationChecking : Monitoring run-time modified files using timeStampMaster (fileModificationSkew 10)
allowSystemOperations : Allowing user-supplied system call operations

// * * * * * * * * * * * * * * * * * * * * * * * * * * * * * * * * * * * * * //
Create time

Create polyMesh for time = 1

Time = 1

Mesh stats
    points:           6097343
    faces:            17395838
    internal faces:   17067611
    cells:            5650650
    faces per cell:   6.09902
    boundary patches: 4
    point zones:      0
    face zones:       0
    cell zones:       0

Overall number of cells of each type:
    hexahedra:     5465832
    prisms:        118
    wedges:        0
    pyramids:      295
    tet wedges:    0
    tetrahedra:    118
    polyhedra:     184287
    Breakdown of polyhedra by number of faces:
        faces   number of cells
            6   46301
            8   404
            9   90001
           10   50
           11   162
           12   45945
           13   25
           14   65
           15   1332
           18   2

Checking topology...
    Boundary definition OK.
    Cell to face addressing OK.
    Point usage OK.
    Upper triangular ordering OK.
    Face vertices OK.
    Number of regions: 1 (OK).

Checking patch topology for multiply connected surfaces...
                   Patch    Faces   Points                  Surface topology
                   inlet      310      326  ok (non-closed singly connected)
                  outlet      304      321  ok (non-closed singly connected)
                   walls     3985     4025  ok (non-closed singly connected)
                  rocket   323628   325824      ok (closed singly connected)

Checking geometry...
    Overall domain bounding box (-3 -2.994 -3.00006) (13 2.9941 2.99233)
    Mesh has 3 geometric (non-empty/wedge) directions (1 1 1)
    Mesh has 3 solution (non-empty) directions (1 1 1)
    Boundary openness (7.83628e-17 3.67276e-16 -8.92986e-17) OK.
    Max cell openness = 3.0889e-16 OK.
    Max aspect ratio = 6.98142 OK.
    Minimum face area = 1.37007e-06. Maximum face area = 0.13072.  Face area magnitudes OK.
    Min volume = 1.60545e-09. Max volume = 0.0322813.  Total volume = 450.127.  Cell volumes OK.
    Mesh non-orthogonality Max: 49.7042 average: 5.24554
    Non-orthogonality check OK.
    Face pyramids OK.
    Max skewness = 1.00826 OK.
    Coupled point location match (average 0) OK.

Mesh OK.

Time = 2

Mesh stats
    points:           6007291
    faces:            17301810
    internal faces:   17067611
    cells:            5650650
    faces per cell:   6.08238
    boundary patches: 4
    point zones:      0
    face zones:       0
    cell zones:       0

Overall number of cells of each type:
    hexahedra:     5377601
    prisms:        81949
    wedges:        0
    pyramids:      295
    tet wedges:    175
    tetrahedra:    122
    polyhedra:     190508
    Breakdown of polyhedra by number of faces:
        faces   number of cells
            4   3056
            5   4070
            6   45463
            7   404
            8   624
            9   89410
           10   123
           11   71
           12   45904
           14   65
           15   1316
           18   2

Checking topology...
    Boundary definition OK.
    Cell to face addressing OK.
    Point usage OK.
    Upper triangular ordering OK.
    Face vertices OK.
    Number of regions: 1 (OK).

Checking patch topology for multiply connected surfaces...
                   Patch    Faces   Points                  Surface topology
                   inlet      310      326  ok (non-closed singly connected)
                  outlet      304      321  ok (non-closed singly connected)
                   walls     3985     4025  ok (non-closed singly connected)
                  rocket   229600   235772      ok (closed singly connected)

Checking geometry...
    Overall domain bounding box (-3 -2.994 -3.00006) (13 2.9941 2.99233)
    Mesh has 3 geometric (non-empty/wedge) directions (1 1 1)
    Mesh has 3 solution (non-empty) directions (1 1 1)
    Boundary openness (4.27914e-17 3.64119e-16 -1.05759e-16) OK.
    Max cell openness = 3.85453e-16 OK.
    Max aspect ratio = 6.98142 OK.
    Minimum face area = 2.10302e-07. Maximum face area = 0.13072.  Face area magnitudes OK.
    Min volume = 2.25729e-10. Max volume = 0.0322813.  Total volume = 450.127.  Cell volumes OK.
    Mesh non-orthogonality Max: 55.7652 average: 5.50945
    Non-orthogonality check OK.
    Face pyramids OK.
    Max skewness = 1.93429 OK.
    Coupled point location match (average 0) OK.

Mesh OK.

Time = 3

Mesh stats
    points:           8365011
    faces:            24251290
    internal faces:   24017091
    cells:            7946650
    faces per cell:   6.07405
    boundary patches: 4
    point zones:      0
    face zones:       0
    cell zones:       0

Overall number of cells of each type:
    hexahedra:     7578111
    prisms:        81989
    wedges:        0
    pyramids:      295
    tet wedges:    175
    tetrahedra:    122
    polyhedra:     285958
    Breakdown of polyhedra by number of faces:
        faces   number of cells
            4   3056
            5   4070
            6   45463
            7   72524
            8   20704
            9   91920
           10   653
           11   261
           12   45924
           14   65
           15   1316
           18   2

Checking topology...
    Boundary definition OK.
    Cell to face addressing OK.
    Point usage OK.
    Upper triangular ordering OK.
    Face vertices OK.
    Number of regions: 1 (OK).

Checking patch topology for multiply connected surfaces...
                   Patch    Faces   Points                  Surface topology
                   inlet      310      326  ok (non-closed singly connected)
                  outlet      304      321  ok (non-closed singly connected)
                   walls     3985     4025  ok (non-closed singly connected)
                  rocket   229600   235772      ok (closed singly connected)

Checking geometry...
    Overall domain bounding box (-3 -2.994 -3.00006) (13 2.9941 2.99233)
    Mesh has 3 geometric (non-empty/wedge) directions (1 1 1)
    Mesh has 3 solution (non-empty) directions (1 1 1)
    Boundary openness (-4.39462e-18 3.21621e-16 2.16768e-16) OK.
    Max cell openness = 1.58055e-14 OK.
    Max aspect ratio = 319.297 OK.
    Minimum face area = 1.42786e-09. Maximum face area = 0.130744.  Face area magnitudes OK.
    Min volume = 2.0907e-12. Max volume = 0.0322742.  Total volume = 450.127.  Cell volumes OK.
    Mesh non-orthogonality Max: 99.3384 average: 6.23444
   *Number of severely non-orthogonal (> 70 degrees) faces: 2630.
 ***Number of non-orthogonality errors: 26.
  <<Writing 2656 non-orthogonal faces to set nonOrthoFaces
 ***Error in face pyramids: 175 faces are incorrectly oriented.
  <<Writing 168 faces with incorrect orientation to set wrongOrientedFaces
 ***Max skewness = 46.9528, 12 highly skew faces detected which may impair the quality of the results
  <<Writing 12 skew faces to set skewFaces
    Coupled point location match (average 0) OK.

Failed 3 mesh checks.

End

