/*---------------------------------------------------------------------------*\
  =========                 |
  \\      /  F ield         | OpenFOAM: The Open Source CFD Toolbox
   \\    /   O peration     | Website:  https://openfoam.org
    \\  /    A nd           | Version:  7
     \\/     M anipulation  |
\*---------------------------------------------------------------------------*/
Build  : 7
Exec   : checkMesh
Date   : Mar 01 2021
Time   : 10:28:49
Host   : "lucamignozzi-ROG-Zephyrus-G14-GA401IV-GA401IV"
PID    : 45364
I/O    : uncollated
Case   : /home/lucamignozzi/Desktop/Skyward/computational-fluid-dynamics/meshSnappy
nProcs : 1
sigFpe : Enabling floating point exception trapping (FOAM_SIGFPE).
fileModificationChecking : Monitoring run-time modified files using timeStampMaster (fileModificationSkew 10)
allowSystemOperations : Allowing user-supplied system call operations

// * * * * * * * * * * * * * * * * * * * * * * * * * * * * * * * * * * * * * //
Create time

Create polyMesh for time = 1

Time = 1

Mesh stats
    points:           1755768
    faces:            5042836
    internal faces:   4995582
    cells:            1644392
    faces per cell:   6.10464
    boundary patches: 4
    point zones:      0
    face zones:       0
    cell zones:       0

Overall number of cells of each type:
    hexahedra:     1583433
    prisms:        90
    wedges:        0
    pyramids:      225
    tet wedges:    0
    tetrahedra:    90
    polyhedra:     60554
    Breakdown of polyhedra by number of faces:
        faces   number of cells
            6   15372
            8   443
            9   32656
           10   62
           11   45
           12   11504
           13   13
           14   12
           15   447

Checking topology...
    Boundary definition OK.
    Cell to face addressing OK.
    Point usage OK.
    Upper triangular ordering OK.
    Face vertices OK.
    Number of regions: 1 (OK).

Checking patch topology for multiply connected surfaces...
                   Patch    Faces   Points                  Surface topology
                   inlet      173      180  ok (non-closed singly connected)
                  outlet      483      526  ok (non-closed singly connected)
                   walls     1842     1881  ok (non-closed singly connected)
                  rocket    44756    45941      ok (closed singly connected)

Checking geometry...
    Overall domain bounding box (-3 -1.99594 -1.99975) (8 1.99591 1.99484)
    Mesh has 3 geometric (non-empty/wedge) directions (1 1 1)
    Mesh has 3 solution (non-empty) directions (1 1 1)
    Boundary openness (-2.42584e-17 2.14154e-17 1.25875e-18) OK.
    Max cell openness = 3.18826e-16 OK.
    Max aspect ratio = 6.40646 OK.
    Minimum face area = 1.37592e-06. Maximum face area = 0.140575.  Face area magnitudes OK.
    Min volume = 1.61968e-09. Max volume = 0.0297623.  Total volume = 137.297.  Cell volumes OK.
    Mesh non-orthogonality Max: 54.5897 average: 5.374
    Non-orthogonality check OK.
    Face pyramids OK.
    Max skewness = 1.00171 OK.
    Coupled point location match (average 0) OK.

Mesh OK.

Time = 2

Mesh stats
    points:           1745942
    faces:            5031814
    internal faces:   4995582
    cells:            1644392
    faces per cell:   6.09794
    boundary patches: 4
    point zones:      0
    face zones:       0
    cell zones:       0

Overall number of cells of each type:
    hexahedra:     1573948
    prisms:        7881
    wedges:        0
    pyramids:      225
    tet wedges:    113
    tetrahedra:    90
    polyhedra:     62135
    Breakdown of polyhedra by number of faces:
        faces   number of cells
            4   684
            5   927
            6   15362
            7   457
            8   73
            9   32613
           10   14
           11   32
           12   11514
           14   22
           15   437

Checking topology...
    Boundary definition OK.
    Cell to face addressing OK.
    Point usage OK.
    Upper triangular ordering OK.
    Face vertices OK.
    Number of regions: 1 (OK).

Checking patch topology for multiply connected surfaces...
                   Patch    Faces   Points                  Surface topology
                   inlet      173      180  ok (non-closed singly connected)
                  outlet      483      526  ok (non-closed singly connected)
                   walls     1842     1881  ok (non-closed singly connected)
                  rocket    33734    36115      ok (closed singly connected)

Checking geometry...
    Overall domain bounding box (-3 -1.99594 -1.99975) (8 1.99591 1.99484)
    Mesh has 3 geometric (non-empty/wedge) directions (1 1 1)
    Mesh has 3 solution (non-empty) directions (1 1 1)
    Boundary openness (-7.22547e-17 9.39516e-17 1.96154e-16) OK.
    Max cell openness = 3.12477e-16 OK.
    Max aspect ratio = 6.40646 OK.
    Minimum face area = 3.44565e-07. Maximum face area = 0.140575.  Face area magnitudes OK.
    Min volume = 3.25624e-10. Max volume = 0.0297642.  Total volume = 137.298.  Cell volumes OK.
    Mesh non-orthogonality Max: 54.5897 average: 5.49769
    Non-orthogonality check OK.
    Face pyramids OK.
    Max skewness = 2.77651 OK.
    Coupled point location match (average 0) OK.

Mesh OK.

Time = 3

Mesh stats
    points:           2107092
    faces:            6067524
    internal faces:   6031292
    cells:            1981732
    faces per cell:   6.10517
    boundary patches: 4
    point zones:      0
    face zones:       0
    cell zones:       0

Overall number of cells of each type:
    hexahedra:     1876378
    prisms:        7881
    wedges:        0
    pyramids:      225
    tet wedges:    113
    tetrahedra:    90
    polyhedra:     97045
    Breakdown of polyhedra by number of faces:
        faces   number of cells
            4   684
            5   947
            6   15542
            7   24017
            8   10223
            9   33073
           10   554
           11   32
           12   11514
           14   22
           15   437

Checking topology...
    Boundary definition OK.
    Cell to face addressing OK.
    Point usage OK.
    Upper triangular ordering OK.
    Face vertices OK.
    Number of regions: 1 (OK).

Checking patch topology for multiply connected surfaces...
                   Patch    Faces   Points                  Surface topology
                   inlet      173      180  ok (non-closed singly connected)
                  outlet      483      526  ok (non-closed singly connected)
                   walls     1842     1881  ok (non-closed singly connected)
                  rocket    33734    36115      ok (closed singly connected)

Checking geometry...
    Overall domain bounding box (-3 -1.99594 -1.99975) (8 1.99591 1.99484)
    Mesh has 3 geometric (non-empty/wedge) directions (1 1 1)
    Mesh has 3 solution (non-empty) directions (1 1 1)
    Boundary openness (1.33459e-17 -4.09902e-18 3.24751e-16) OK.
    Max cell openness = 2.63167e-14 OK.
    Max aspect ratio = 469.375 OK.
    Minimum face area = 3.41964e-09. Maximum face area = 0.140578.  Face area magnitudes OK.
    Min volume = 5.00096e-12. Max volume = 0.0297703.  Total volume = 137.298.  Cell volumes OK.
    Mesh non-orthogonality Max: 81.1423 average: 6.849
   *Number of severely non-orthogonal (> 70 degrees) faces: 110.
    Non-orthogonality check OK.
  <<Writing 110 non-orthogonal faces to set nonOrthoFaces
 ***Error in face pyramids: 2 faces are incorrectly oriented.
  <<Writing 2 faces with incorrect orientation to set wrongOrientedFaces
    Max skewness = 2.71184 OK.
    Coupled point location match (average 0) OK.

Failed 1 mesh checks.

End

