/*---------------------------------------------------------------------------*\
  =========                 |
  \\      /  F ield         | OpenFOAM: The Open Source CFD Toolbox
   \\    /   O peration     | Website:  https://openfoam.org
    \\  /    A nd           | Version:  7
     \\/     M anipulation  |
\*---------------------------------------------------------------------------*/
Build  : 7-3bcbaf946ae9
Exec   : checkMesh
Date   : Feb 18 2021
Time   : 22:30:29
Host   : "omarkahol"
PID    : 4175
I/O    : uncollated
Case   : /home/omarkahol/SKYWARD/HERMESV1/meshSnappy
nProcs : 1
sigFpe : Enabling floating point exception trapping (FOAM_SIGFPE).
fileModificationChecking : Monitoring run-time modified files using timeStampMaster (fileModificationSkew 10)
allowSystemOperations : Allowing user-supplied system call operations

// * * * * * * * * * * * * * * * * * * * * * * * * * * * * * * * * * * * * * //
Create time

Create polyMesh for time = 1

Time = 1

Mesh stats
    points:           1755760
    faces:            5042799
    internal faces:   4995546
    cells:            1644378
    faces per cell:   6.10465
    boundary patches: 4
    point zones:      0
    face zones:       0
    cell zones:       0

Overall number of cells of each type:
    hexahedra:     1583428
    prisms:        88
    wedges:        0
    pyramids:      220
    tet wedges:    0
    tetrahedra:    88
    polyhedra:     60554
    Breakdown of polyhedra by number of faces:
        faces   number of cells
            6   15372
            8   443
            9   32656
           10   62
           11   45
           12   11504
           13   13
           14   12
           15   447

Checking topology...
    Boundary definition OK.
    Cell to face addressing OK.
    Point usage OK.
    Upper triangular ordering OK.
    Face vertices OK.
    Number of regions: 1 (OK).

Checking patch topology for multiply connected surfaces...
                   Patch    Faces   Points                  Surface topology
                   inlet      174      181  ok (non-closed singly connected)
                  outlet      483      526  ok (non-closed singly connected)
                   walls     1840     1880  ok (non-closed singly connected)
                  rocket    44756    45941      ok (closed singly connected)

Checking geometry...
    Overall domain bounding box (-3 -1.99592 -1.99975) (8 1.99591 1.99484)
    Mesh has 3 geometric (non-empty/wedge) directions (1 1 1)
    Mesh has 3 solution (non-empty) directions (1 1 1)
    Boundary openness (-3.6128e-17 -2.13371e-17 -1.15857e-16) OK.
    Max cell openness = 3.23956e-16 OK.
    Max aspect ratio = 5.61036 OK.
    Minimum face area = 1.37592e-06. Maximum face area = 0.139661.  Face area magnitudes OK.
    Min volume = 1.61969e-09. Max volume = 0.029761.  Total volume = 137.297.  Cell volumes OK.
    Mesh non-orthogonality Max: 54.5853 average: 5.37355
    Non-orthogonality check OK.
    Face pyramids OK.
    Max skewness = 1.00172 OK.
    Coupled point location match (average 0) OK.

Mesh OK.

Time = 2

Mesh stats
    points:           1745934
    faces:            5031777
    internal faces:   4995546
    cells:            1644378
    faces per cell:   6.09794
    boundary patches: 4
    point zones:      0
    face zones:       0
    cell zones:       0

Overall number of cells of each type:
    hexahedra:     1573943
    prisms:        7879
    wedges:        0
    pyramids:      220
    tet wedges:    113
    tetrahedra:    88
    polyhedra:     62135
    Breakdown of polyhedra by number of faces:
        faces   number of cells
            4   684
            5   927
            6   15362
            7   457
            8   73
            9   32613
           10   14
           11   32
           12   11514
           14   22
           15   437

Checking topology...
    Boundary definition OK.
    Cell to face addressing OK.
    Point usage OK.
    Upper triangular ordering OK.
    Face vertices OK.
    Number of regions: 1 (OK).

Checking patch topology for multiply connected surfaces...
                   Patch    Faces   Points                  Surface topology
                   inlet      174      181  ok (non-closed singly connected)
                  outlet      483      526  ok (non-closed singly connected)
                   walls     1840     1880  ok (non-closed singly connected)
                  rocket    33734    36115      ok (closed singly connected)

Checking geometry...
    Overall domain bounding box (-3 -1.99592 -1.99975) (8 1.99591 1.99484)
    Mesh has 3 geometric (non-empty/wedge) directions (1 1 1)
    Mesh has 3 solution (non-empty) directions (1 1 1)
    Boundary openness (-8.95316e-18 2.36381e-17 2.58395e-16) OK.
    Max cell openness = 3.05897e-16 OK.
    Max aspect ratio = 5.61034 OK.
    Minimum face area = 2.61928e-07. Maximum face area = 0.139661.  Face area magnitudes OK.
    Min volume = 3.25614e-10. Max volume = 0.029763.  Total volume = 137.298.  Cell volumes OK.
    Mesh non-orthogonality Max: 54.5853 average: 5.49728
    Non-orthogonality check OK.
    Face pyramids OK.
    Max skewness = 2.77661 OK.
    Coupled point location match (average 0) OK.

Mesh OK.

Time = 3

Mesh stats
    points:           2107084
    faces:            6067487
    internal faces:   6031256
    cells:            1981718
    faces per cell:   6.10518
    boundary patches: 4
    point zones:      0
    face zones:       0
    cell zones:       0

Overall number of cells of each type:
    hexahedra:     1876373
    prisms:        7879
    wedges:        0
    pyramids:      220
    tet wedges:    113
    tetrahedra:    88
    polyhedra:     97045
    Breakdown of polyhedra by number of faces:
        faces   number of cells
            4   684
            5   947
            6   15542
            7   24017
            8   10223
            9   33073
           10   554
           11   32
           12   11514
           14   22
           15   437

Checking topology...
    Boundary definition OK.
    Cell to face addressing OK.
    Point usage OK.
    Upper triangular ordering OK.
    Face vertices OK.
    Number of regions: 1 (OK).

Checking patch topology for multiply connected surfaces...
                   Patch    Faces   Points                  Surface topology
                   inlet      174      181  ok (non-closed singly connected)
                  outlet      483      526  ok (non-closed singly connected)
                   walls     1840     1880  ok (non-closed singly connected)
                  rocket    33734    36115      ok (closed singly connected)

Checking geometry...
    Overall domain bounding box (-3 -1.99592 -1.99975) (8 1.99591 1.99484)
    Mesh has 3 geometric (non-empty/wedge) directions (1 1 1)
    Mesh has 3 solution (non-empty) directions (1 1 1)
    Boundary openness (-3.90009e-17 -7.87428e-17 1.88386e-16) OK.
    Max cell openness = 2.39196e-14 OK.
    Max aspect ratio = 469.375 OK.
    Minimum face area = 3.41964e-09. Maximum face area = 0.139663.  Face area magnitudes OK.
    Min volume = 4.16556e-12. Max volume = 0.0297692.  Total volume = 137.298.  Cell volumes OK.
    Mesh non-orthogonality Max: 81.1435 average: 6.85168
   *Number of severely non-orthogonal (> 70 degrees) faces: 111.
    Non-orthogonality check OK.
  <<Writing 111 non-orthogonal faces to set nonOrthoFaces
 ***Error in face pyramids: 2 faces are incorrectly oriented.
  <<Writing 2 faces with incorrect orientation to set wrongOrientedFaces
    Max skewness = 2.71185 OK.
    Coupled point location match (average 0) OK.

Failed 1 mesh checks.

End

