/*---------------------------------------------------------------------------*\
  =========                 |
  \\      /  F ield         | OpenFOAM: The Open Source CFD Toolbox
   \\    /   O peration     | Website:  https://openfoam.org
    \\  /    A nd           | Version:  7
     \\/     M anipulation  |
\*---------------------------------------------------------------------------*/
Build  : 7
Exec   : checkMesh
Date   : Mar 13 2021
Time   : 11:49:53
Host   : "lucamignozzi-ROG-Zephyrus-G14-GA401IV-GA401IV"
PID    : 13138
I/O    : uncollated
Case   : /home/lucamignozzi/Desktop/Skyward/computational-fluid-dynamics/meshSnappy
nProcs : 1
sigFpe : Enabling floating point exception trapping (FOAM_SIGFPE).
fileModificationChecking : Monitoring run-time modified files using timeStampMaster (fileModificationSkew 10)
allowSystemOperations : Allowing user-supplied system call operations

// * * * * * * * * * * * * * * * * * * * * * * * * * * * * * * * * * * * * * //
Create time

Create polyMesh for time = 1

Time = 1

Mesh stats
    points:           1430144
    faces:            3952945
    internal faces:   3832264
    cells:            1262177
    faces per cell:   6.16808
    boundary patches: 4
    point zones:      0
    face zones:       0
    cell zones:       0

Overall number of cells of each type:
    hexahedra:     1190656
    prisms:        96
    wedges:        0
    pyramids:      240
    tet wedges:    0
    tetrahedra:    96
    polyhedra:     71089
    Breakdown of polyhedra by number of faces:
        faces   number of cells
            6   18435
            8   225
            9   34835
           11   94
           12   16731
           13   12
           14   38
           15   717
           17   1
           18   1

Checking topology...
    Boundary definition OK.
    Cell to face addressing OK.
    Point usage OK.
    Upper triangular ordering OK.
    Face vertices OK.
    Number of regions: 1 (OK).

Checking patch topology for multiply connected surfaces...
                   Patch    Faces   Points                  Surface topology
                   inlet      119      125  ok (non-closed singly connected)
                  outlet      119      125  ok (non-closed singly connected)
                   walls     1338     1356  ok (non-closed singly connected)
                  rocket   119105   120307      ok (closed singly connected)

Checking geometry...
    Overall domain bounding box (-3 -2.99802 -3.00156) (13 2.99708 2.99239)
    Mesh has 3 geometric (non-empty/wedge) directions (1 1 1)
    Mesh has 3 solution (non-empty) directions (1 1 1)
    Boundary openness (4.32781e-18 4.22196e-17 5.71991e-17) OK.
    Max cell openness = 4.65104e-16 OK.
    Max aspect ratio = 7.9007 OK.
    Minimum face area = 3.8298e-06. Maximum face area = 0.410512.  Face area magnitudes OK.
    Min volume = 7.52613e-09. Max volume = 0.174605.  Total volume = 448.739.  Cell volumes OK.
    Mesh non-orthogonality Max: 48.962 average: 6.8168
    Non-orthogonality check OK.
    Face pyramids OK.
    Max skewness = 1.0038 OK.
    Coupled point location match (average 0) OK.

Mesh OK.

Time = 2

Mesh stats
    points:           1396825
    faces:            3918010
    internal faces:   3832264
    cells:            1262177
    faces per cell:   6.1404
    boundary patches: 4
    point zones:      0
    face zones:       0
    cell zones:       0

Overall number of cells of each type:
    hexahedra:     1157905
    prisms:        30166
    wedges:        0
    pyramids:      240
    tet wedges:    92
    tetrahedra:    97
    polyhedra:     73677
    Breakdown of polyhedra by number of faces:
        faces   number of cells
            4   1156
            5   1752
            6   18152
            7   168
            8   200
            9   34684
           10   64
           11   35
           12   16715
           13   1
           14   38
           15   712

Checking topology...
    Boundary definition OK.
    Cell to face addressing OK.
    Point usage OK.
    Upper triangular ordering OK.
    Face vertices OK.
    Number of regions: 1 (OK).

Checking patch topology for multiply connected surfaces...
                   Patch    Faces   Points                  Surface topology
                   inlet      119      125  ok (non-closed singly connected)
                  outlet      119      125  ok (non-closed singly connected)
                   walls     1338     1356  ok (non-closed singly connected)
                  rocket    84170    86988      ok (closed singly connected)

Checking geometry...
    Overall domain bounding box (-3 -2.99802 -3.00156) (13 2.99708 2.99239)
    Mesh has 3 geometric (non-empty/wedge) directions (1 1 1)
    Mesh has 3 solution (non-empty) directions (1 1 1)
    Boundary openness (5.51867e-17 1.07838e-16 2.43386e-16) OK.
    Max cell openness = 5.48157e-16 OK.
    Max aspect ratio = 7.9007 OK.
    Minimum face area = 2.03176e-07. Maximum face area = 0.410512.  Face area magnitudes OK.
    Min volume = 1.26372e-09. Max volume = 0.174605.  Total volume = 448.739.  Cell volumes OK.
    Mesh non-orthogonality Max: 57.5539 average: 7.14994
    Non-orthogonality check OK.
 ***Error in face pyramids: 1 faces are incorrectly oriented.
  <<Writing 1 faces with incorrect orientation to set wrongOrientedFaces
 ***Max skewness = 4.26641, 1 highly skew faces detected which may impair the quality of the results
  <<Writing 1 skew faces to set skewFaces
    Coupled point location match (average 0) OK.

Failed 2 mesh checks.

Time = 3

Mesh stats
    points:           2266705
    faces:            6471050
    internal faces:   6385304
    cells:            2103877
    faces per cell:   6.11079
    boundary patches: 4
    point zones:      0
    face zones:       0
    cell zones:       0

Overall number of cells of each type:
    hexahedra:     1955345
    prisms:        30186
    wedges:        0
    pyramids:      240
    tet wedges:    92
    tetrahedra:    97
    polyhedra:     117917
    Breakdown of polyhedra by number of faces:
        faces   number of cells
            4   1156
            5   1752
            6   18152
            7   34378
            8   8980
            9   35594
           10   364
           11   75
           12   16715
           13   1
           14   38
           15   712

Checking topology...
    Boundary definition OK.
    Cell to face addressing OK.
    Point usage OK.
    Upper triangular ordering OK.
    Face vertices OK.
    Number of regions: 1 (OK).

Checking patch topology for multiply connected surfaces...
                   Patch    Faces   Points                  Surface topology
                   inlet      119      125  ok (non-closed singly connected)
                  outlet      119      125  ok (non-closed singly connected)
                   walls     1338     1356  ok (non-closed singly connected)
                  rocket    84170    86988      ok (closed singly connected)

Checking geometry...
    Overall domain bounding box (-3 -2.99802 -3.00156) (13 2.99708 2.99239)
    Mesh has 3 geometric (non-empty/wedge) directions (1 1 1)
    Mesh has 3 solution (non-empty) directions (1 1 1)
    Boundary openness (2.4332e-17 1.63376e-16 -3.509e-16) OK.
 ***High aspect ratio cells found, Max aspect ratio: 7.79833e+96, number of cells 16
  <<Writing 16 cells with high aspect ratio to set highAspectRatioCells
    Minimum face area = 4.09045e-10. Maximum face area = 0.410611.  Face area magnitudes OK.
 ***Zero or negative cell volume detected.  Minimum negative volume: -4.51671e-10, Number of negative volume cells: 16
  <<Writing 16 zero volume cells to set zeroVolumeCells
    Mesh non-orthogonality Max: 138.564 average: 8.07726
   *Number of severely non-orthogonal (> 70 degrees) faces: 849.
 ***Number of non-orthogonality errors: 29.
  <<Writing 878 non-orthogonal faces to set nonOrthoFaces
 ***Error in face pyramids: 376 faces are incorrectly oriented.
  <<Writing 362 faces with incorrect orientation to set wrongOrientedFaces
 ***Max skewness = 267.556, 257 highly skew faces detected which may impair the quality of the results
  <<Writing 257 skew faces to set skewFaces
    Coupled point location match (average 0) OK.

Failed 5 mesh checks.

End

