/*---------------------------------------------------------------------------*\
  =========                 |
  \\      /  F ield         | OpenFOAM: The Open Source CFD Toolbox
   \\    /   O peration     | Website:  https://openfoam.org
    \\  /    A nd           | Version:  7
     \\/     M anipulation  |
\*---------------------------------------------------------------------------*/
Build  : 7-3bcbaf946ae9
Exec   : checkMesh
Date   : Feb 18 2021
Time   : 10:26:10
Host   : "omarkahol"
PID    : 5267
I/O    : uncollated
Case   : /home/omarkahol/SKYWARD/HERMESV1/meshSnappy
nProcs : 1
sigFpe : Enabling floating point exception trapping (FOAM_SIGFPE).
fileModificationChecking : Monitoring run-time modified files using timeStampMaster (fileModificationSkew 10)
allowSystemOperations : Allowing user-supplied system call operations

// * * * * * * * * * * * * * * * * * * * * * * * * * * * * * * * * * * * * * //
Create time

Create polyMesh for time = 1

Time = 1

Mesh stats
    points:           3000701
    faces:            8672294
    internal faces:   8593348
    cells:            2836314
    faces per cell:   6.08735
    boundary patches: 4
    point zones:      0
    face zones:       0
    cell zones:       0

Overall number of cells of each type:
    hexahedra:     2752673
    prisms:        88
    wedges:        0
    pyramids:      220
    tet wedges:    0
    tetrahedra:    88
    polyhedra:     83245
    Breakdown of polyhedra by number of faces:
        faces   number of cells
            6   18983
            8   220
            9   45990
           10   10
           11   3
           12   17524
           13   1
           15   514

Checking topology...
    Boundary definition OK.
    Cell to face addressing OK.
    Point usage OK.
    Upper triangular ordering OK.
    Face vertices OK.
    Number of regions: 1 (OK).

Checking patch topology for multiply connected surfaces...
                   Patch    Faces   Points                  Surface topology
                   inlet      174      181  ok (non-closed singly connected)
                  outlet      483      526  ok (non-closed singly connected)
                   walls     1840     1880  ok (non-closed singly connected)
                  rocket    76449    76935      ok (closed singly connected)

Checking geometry...
    Overall domain bounding box (-3 -1.99592 -1.99972) (8 1.99591 1.99484)
    Mesh has 3 geometric (non-empty/wedge) directions (1 1 1)
    Mesh has 3 solution (non-empty) directions (1 1 1)
    Boundary openness (-3.3273e-17 -7.82842e-17 -3.10498e-16) OK.
    Max cell openness = 3.20826e-16 OK.
    Max aspect ratio = 5.61036 OK.
    Minimum face area = 1.37592e-06. Maximum face area = 0.139661.  Face area magnitudes OK.
    Min volume = 1.61916e-09. Max volume = 0.029761.  Total volume = 137.297.  Cell volumes OK.
    Mesh non-orthogonality Max: 54.5853 average: 4.91288
    Non-orthogonality check OK.
    Face pyramids OK.
    Max skewness = 1.00115 OK.
    Coupled point location match (average 0) OK.

Mesh OK.

Time = 2

Mesh stats
    points:           2989620
    faces:            8660139
    internal faces:   8593348
    cells:            2836314
    faces per cell:   6.08307
    boundary patches: 4
    point zones:      0
    face zones:       0
    cell zones:       0

Overall number of cells of each type:
    hexahedra:     2741642
    prisms:        9655
    wedges:        0
    pyramids:      220
    tet wedges:    32
    tetrahedra:    88
    polyhedra:     84677
    Breakdown of polyhedra by number of faces:
        faces   number of cells
            4   690
            5   766
            6   18981
            7   238
            8   39
            9   45922
           10   2
           11   1
           12   17524
           14   1
           15   513

Checking topology...
    Boundary definition OK.
    Cell to face addressing OK.
    Point usage OK.
    Upper triangular ordering OK.
    Face vertices OK.
    Number of regions: 1 (OK).

Checking patch topology for multiply connected surfaces...
                   Patch    Faces   Points                  Surface topology
                   inlet      174      181  ok (non-closed singly connected)
                  outlet      483      526  ok (non-closed singly connected)
                   walls     1840     1880  ok (non-closed singly connected)
                  rocket    64294    65854      ok (closed singly connected)

Checking geometry...
    Overall domain bounding box (-3 -1.99592 -1.99972) (8 1.99591 1.99484)
    Mesh has 3 geometric (non-empty/wedge) directions (1 1 1)
    Mesh has 3 solution (non-empty) directions (1 1 1)
    Boundary openness (-1.19446e-17 1.2624e-17 2.03998e-16) OK.
    Max cell openness = 3.07568e-16 OK.
    Max aspect ratio = 5.61034 OK.
    Minimum face area = 3.38602e-07. Maximum face area = 0.139661.  Face area magnitudes OK.
    Min volume = 3.25782e-10. Max volume = 0.029763.  Total volume = 137.298.  Cell volumes OK.
    Mesh non-orthogonality Max: 54.5853 average: 4.99986
    Non-orthogonality check OK.
    Face pyramids OK.
    Max skewness = 2.93447 OK.
    Coupled point location match (average 0) OK.

Mesh OK.

Time = 3

Mesh stats
    points:           3648160
    faces:            10604459
    internal faces:   10537668
    cells:            3479254
    faces per cell:   6.07663
    boundary patches: 4
    point zones:      0
    face zones:       0
    cell zones:       0

Overall number of cells of each type:
    hexahedra:     3361962
    prisms:        9655
    wedges:        0
    pyramids:      220
    tet wedges:    32
    tetrahedra:    88
    polyhedra:     107297
    Breakdown of polyhedra by number of faces:
        faces   number of cells
            4   690
            5   786
            6   19121
            7   14548
            8   7809
            9   46272
           10   32
           11   1
           12   17524
           14   1
           15   513

Checking topology...
    Boundary definition OK.
    Cell to face addressing OK.
    Point usage OK.
    Upper triangular ordering OK.
    Face vertices OK.
    Number of regions: 1 (OK).

Checking patch topology for multiply connected surfaces...
                   Patch    Faces   Points                  Surface topology
                   inlet      174      181  ok (non-closed singly connected)
                  outlet      483      526  ok (non-closed singly connected)
                   walls     1840     1880  ok (non-closed singly connected)
                  rocket    64294    65854      ok (closed singly connected)

Checking geometry...
    Overall domain bounding box (-3 -1.99592 -1.99972) (8 1.99591 1.99484)
    Mesh has 3 geometric (non-empty/wedge) directions (1 1 1)
    Mesh has 3 solution (non-empty) directions (1 1 1)
    Boundary openness (-3.95511e-17 -2.78358e-17 3.1659e-16) OK.
    Max cell openness = 2.09825e-14 OK.
    Max aspect ratio = 469.364 OK.
    Minimum face area = 3.41862e-09. Maximum face area = 0.139663.  Face area magnitudes OK.
    Min volume = 5.07001e-12. Max volume = 0.0297695.  Total volume = 137.298.  Cell volumes OK.
    Mesh non-orthogonality Max: 81.2512 average: 5.78714
   *Number of severely non-orthogonal (> 70 degrees) faces: 123.
    Non-orthogonality check OK.
  <<Writing 123 non-orthogonal faces to set nonOrthoFaces
 ***Error in face pyramids: 2 faces are incorrectly oriented.
  <<Writing 2 faces with incorrect orientation to set wrongOrientedFaces
    Max skewness = 2.82429 OK.
    Coupled point location match (average 0) OK.

Failed 1 mesh checks.

End

