/*---------------------------------------------------------------------------*\
  =========                 |
  \\      /  F ield         | OpenFOAM: The Open Source CFD Toolbox
   \\    /   O peration     | Website:  https://openfoam.org
    \\  /    A nd           | Version:  7
     \\/     M anipulation  |
\*---------------------------------------------------------------------------*/
Build  : 7-3bcbaf946ae9
Exec   : checkMesh
Date   : Feb 17 2021
Time   : 10:55:51
Host   : "omarkahol"
PID    : 4654
I/O    : uncollated
Case   : /home/omarkahol/SKYWARD/HERMESV1/meshSnappy
nProcs : 1
sigFpe : Enabling floating point exception trapping (FOAM_SIGFPE).
fileModificationChecking : Monitoring run-time modified files using timeStampMaster (fileModificationSkew 10)
allowSystemOperations : Allowing user-supplied system call operations

// * * * * * * * * * * * * * * * * * * * * * * * * * * * * * * * * * * * * * //
Create time

Create polyMesh for time = 1

Time = 1

Mesh stats
    points:           4831155
    faces:            14080017
    internal faces:   13996632
    cells:            4624981
    faces per cell:   6.07065
    boundary patches: 4
    point zones:      0
    face zones:       0
    cell zones:       0

Overall number of cells of each type:
    hexahedra:     4515993
    prisms:        88
    wedges:        0
    pyramids:      220
    tet wedges:    0
    tetrahedra:    88
    polyhedra:     108592
    Breakdown of polyhedra by number of faces:
        faces   number of cells
            6   13232
            8   224
            9   82037
           10   8
           11   3
           12   12384
           13   1
           15   702
           18   1

Checking topology...
    Boundary definition OK.
    Cell to face addressing OK.
    Point usage OK.
    Upper triangular ordering OK.
    Face vertices OK.
    Number of regions: 1 (OK).

Checking patch topology for multiply connected surfaces...
                   Patch    Faces   Points                  Surface topology
                   inlet      174      181  ok (non-closed singly connected)
                  outlet      483      526  ok (non-closed singly connected)
                   walls     1840     1880  ok (non-closed singly connected)
                  rocket    80888    81382      ok (closed singly connected)

Checking geometry...
    Overall domain bounding box (-3 -1.99592 -1.99975) (8 1.99591 1.99484)
    Mesh has 3 geometric (non-empty/wedge) directions (1 1 1)
    Mesh has 3 solution (non-empty) directions (1 1 1)
    Boundary openness (-1.86894e-17 2.39852e-17 1.49516e-16) OK.
    Max cell openness = 3.20826e-16 OK.
    Max aspect ratio = 5.61036 OK.
    Minimum face area = 1.37592e-06. Maximum face area = 0.139661.  Face area magnitudes OK.
    Min volume = 1.61916e-09. Max volume = 0.029761.  Total volume = 137.298.  Cell volumes OK.
    Mesh non-orthogonality Max: 54.5853 average: 4.42398
    Non-orthogonality check OK.
    Face pyramids OK.
    Max skewness = 1.00125 OK.
    Coupled point location match (average 0) OK.

Mesh OK.

Time = 2

Mesh stats
    points:           4818941
    faces:            14066542
    internal faces:   13996632
    cells:            4624981
    faces per cell:   6.06774
    boundary patches: 4
    point zones:      0
    face zones:       0
    cell zones:       0

Overall number of cells of each type:
    hexahedra:     4503830
    prisms:        10446
    wedges:        0
    pyramids:      220
    tet wedges:    36
    tetrahedra:    88
    polyhedra:     110361
    Breakdown of polyhedra by number of faces:
        faces   number of cells
            4   858
            5   932
            6   13236
            7   246
            8   39
            9   81960
           10   2
           11   1
           12   12384
           14   1
           15   701
           18   1

Checking topology...
    Boundary definition OK.
    Cell to face addressing OK.
    Point usage OK.
    Upper triangular ordering OK.
    Face vertices OK.
    Number of regions: 1 (OK).

Checking patch topology for multiply connected surfaces...
                   Patch    Faces   Points                  Surface topology
                   inlet      174      181  ok (non-closed singly connected)
                  outlet      483      526  ok (non-closed singly connected)
                   walls     1840     1880  ok (non-closed singly connected)
                  rocket    67413    69168      ok (closed singly connected)

Checking geometry...
    Overall domain bounding box (-3 -1.99592 -1.99975) (8 1.99591 1.99484)
    Mesh has 3 geometric (non-empty/wedge) directions (1 1 1)
    Mesh has 3 solution (non-empty) directions (1 1 1)
    Boundary openness (-6.46167e-17 -6.29401e-17 4.20041e-16) OK.
    Max cell openness = 3.07545e-16 OK.
    Max aspect ratio = 5.61034 OK.
    Minimum face area = 2.68996e-07. Maximum face area = 0.139661.  Face area magnitudes OK.
    Min volume = 3.25786e-10. Max volume = 0.0297622.  Total volume = 137.298.  Cell volumes OK.
    Mesh non-orthogonality Max: 54.5853 average: 4.49165
    Non-orthogonality check OK.
    Face pyramids OK.
    Max skewness = 2.92935 OK.
    Coupled point location match (average 0) OK.

Mesh OK.

End

