/*---------------------------------------------------------------------------*\
  =========                 |
  \\      /  F ield         | OpenFOAM: The Open Source CFD Toolbox
   \\    /   O peration     | Website:  https://openfoam.org
    \\  /    A nd           | Version:  7
     \\/     M anipulation  |
\*---------------------------------------------------------------------------*/
Build  : 7
Exec   : checkMesh
Date   : Mar 14 2021
Time   : 11:02:07
Host   : "lucamignozzi-ROG-Zephyrus-G14-GA401IV-GA401IV"
PID    : 32736
I/O    : uncollated
Case   : /home/lucamignozzi/Desktop/Skyward/computational-fluid-dynamics/meshSnappy
nProcs : 1
sigFpe : Enabling floating point exception trapping (FOAM_SIGFPE).
fileModificationChecking : Monitoring run-time modified files using timeStampMaster (fileModificationSkew 10)
allowSystemOperations : Allowing user-supplied system call operations

// * * * * * * * * * * * * * * * * * * * * * * * * * * * * * * * * * * * * * //
Create time

Create polyMesh for time = 1

Time = 1

Mesh stats
    points:           4101750
    faces:            10773526
    internal faces:   10083914
    cells:            3336114
    faces per cell:   6.25202
    boundary patches: 4
    point zones:      0
    face zones:       0
    cell zones:       0

Overall number of cells of each type:
    hexahedra:     3065719
    prisms:        108
    wedges:        0
    pyramids:      270
    tet wedges:    0
    tetrahedra:    108
    polyhedra:     269909
    Breakdown of polyhedra by number of faces:
        faces   number of cells
            6   68696
            9   124603
           12   73986
           15   2621
           18   3

Checking topology...
    Boundary definition OK.
    Cell to face addressing OK.
    Point usage OK.
    Upper triangular ordering OK.
    Face vertices OK.
    Number of regions: 1 (OK).

Checking patch topology for multiply connected surfaces...
                   Patch    Faces   Points                  Surface topology
                   inlet      189      199  ok (non-closed singly connected)
                  outlet      188      198  ok (non-closed singly connected)
                   walls     2301     2329  ok (non-closed singly connected)
                  rocket   686934   686936      ok (closed singly connected)

Checking geometry...
    Overall domain bounding box (-3 -2.99703 -3.00079) (13 2.99711 2.99216)
    Mesh has 3 geometric (non-empty/wedge) directions (1 1 1)
    Mesh has 3 solution (non-empty) directions (1 1 1)
    Boundary openness (1.21205e-17 6.87546e-17 6.24486e-16) OK.
    Max cell openness = 3.47464e-16 OK.
    Max aspect ratio = 8.33146 OK.
    Minimum face area = 2.43828e-06. Maximum face area = 0.263837.  Face area magnitudes OK.
    Min volume = 3.81324e-09. Max volume = 0.0893838.  Total volume = 449.685.  Cell volumes OK.
    Mesh non-orthogonality Max: 48.6818 average: 8.36214
    Non-orthogonality check OK.
    Face pyramids OK.
    Max skewness = 0.511369 OK.
    Coupled point location match (average 0) OK.

Mesh OK.

Time = 2

Mesh stats
    points:           3907210
    faces:            10572261
    internal faces:   10083914
    cells:            3336114
    faces per cell:   6.19169
    boundary patches: 4
    point zones:      0
    face zones:       0
    cell zones:       0

Overall number of cells of each type:
    hexahedra:     2870473
    prisms:        184434
    wedges:        0
    pyramids:      270
    tet wedges:    14
    tetrahedra:    108
    polyhedra:     280815
    Breakdown of polyhedra by number of faces:
        faces   number of cells
            4   6005
            5   4901
            6   68696
            9   124603
           12   73986
           15   2621
           18   3

Checking topology...
    Boundary definition OK.
    Cell to face addressing OK.
    Point usage OK.
    Upper triangular ordering OK.
    Face vertices OK.
    Number of regions: 1 (OK).

Checking patch topology for multiply connected surfaces...
                   Patch    Faces   Points                  Surface topology
                   inlet      189      199  ok (non-closed singly connected)
                  outlet      188      198  ok (non-closed singly connected)
                   walls     2301     2329  ok (non-closed singly connected)
                  rocket   485669   492396      ok (closed singly connected)

Checking geometry...
    Overall domain bounding box (-3 -2.99703 -3.00079) (13 2.99711 2.99216)
    Mesh has 3 geometric (non-empty/wedge) directions (1 1 1)
    Mesh has 3 solution (non-empty) directions (1 1 1)
    Boundary openness (6.99638e-18 7.85838e-17 6.62071e-16) OK.
    Max cell openness = 3.76251e-16 OK.
    Max aspect ratio = 8.33146 OK.
    Minimum face area = 4.81973e-08. Maximum face area = 0.263836.  Face area magnitudes OK.
    Min volume = 4.09468e-10. Max volume = 0.0893834.  Total volume = 449.685.  Cell volumes OK.
    Mesh non-orthogonality Max: 57.1785 average: 8.96828
    Non-orthogonality check OK.
    Face pyramids OK.
 ***Max skewness = 4.59337, 1 highly skew faces detected which may impair the quality of the results
  <<Writing 1 skew faces to set skewFaces
    Coupled point location match (average 0) OK.

Failed 1 mesh checks.

Time = 3

Mesh stats
    points:           8831170
    faces:            25209521
    internal faces:   24721174
    cells:            8192804
    faces per cell:   6.09446
    boundary patches: 4
    point zones:      0
    face zones:       0
    cell zones:       0

Overall number of cells of each type:
    hexahedra:     7618103
    prisms:        184434
    wedges:        0
    pyramids:      270
    tet wedges:    14
    tetrahedra:    108
    polyhedra:     389875
    Breakdown of polyhedra by number of faces:
        faces   number of cells
            4   6005
            5   4901
            6   68736
            7   83660
            8   25360
            9   124603
           12   73986
           15   2621
           18   3

Checking topology...
    Boundary definition OK.
    Cell to face addressing OK.
    Point usage OK.
    Upper triangular ordering OK.
    Face vertices OK.
    Number of regions: 1 (OK).

Checking patch topology for multiply connected surfaces...
                   Patch    Faces   Points                  Surface topology
                   inlet      189      199  ok (non-closed singly connected)
                  outlet      188      198  ok (non-closed singly connected)
                   walls     2301     2329  ok (non-closed singly connected)
                  rocket   485669   492396      ok (closed singly connected)

Checking geometry...
    Overall domain bounding box (-3 -2.99703 -3.00079) (13 2.99711 2.99216)
    Mesh has 3 geometric (non-empty/wedge) directions (1 1 1)
    Mesh has 3 solution (non-empty) directions (1 1 1)
    Boundary openness (2.42768e-17 -8.93177e-18 1.83136e-16) OK.
 ***High aspect ratio cells found, Max aspect ratio: 3.38358e+96, number of cells 1
  <<Writing 1 cells with high aspect ratio to set highAspectRatioCells
    Minimum face area = 1.3819e-09. Maximum face area = 0.263836.  Face area magnitudes OK.
 ***Zero or negative cell volume detected.  Minimum negative volume: -2.05493e-12, Number of negative volume cells: 1
  <<Writing 1 zero volume cells to set zeroVolumeCells
    Mesh non-orthogonality Max: 114.415 average: 6.85331
   *Number of severely non-orthogonal (> 70 degrees) faces: 2537.
 ***Number of non-orthogonality errors: 24.
  <<Writing 2561 non-orthogonal faces to set nonOrthoFaces
 ***Error in face pyramids: 242 faces are incorrectly oriented.
  <<Writing 237 faces with incorrect orientation to set wrongOrientedFaces
 ***Max skewness = 5.60014, 9 highly skew faces detected which may impair the quality of the results
  <<Writing 9 skew faces to set skewFaces
    Coupled point location match (average 0) OK.

Failed 5 mesh checks.

End

