/*---------------------------------------------------------------------------*\
  =========                 |
  \\      /  F ield         | OpenFOAM: The Open Source CFD Toolbox
   \\    /   O peration     | Website:  https://openfoam.org
    \\  /    A nd           | Version:  7
     \\/     M anipulation  |
\*---------------------------------------------------------------------------*/
Build  : 7-3bcbaf946ae9
Exec   : snappyHexMesh
Date   : Feb 18 2021
Time   : 10:11:58
Host   : "omarkahol"
PID    : 4282
I/O    : uncollated
Case   : /home/omarkahol/SKYWARD/HERMESV1/meshSnappy
nProcs : 1
sigFpe : Enabling floating point exception trapping (FOAM_SIGFPE).
fileModificationChecking : Monitoring run-time modified files using timeStampMaster (fileModificationSkew 10)
allowSystemOperations : Allowing user-supplied system call operations

// * * * * * * * * * * * * * * * * * * * * * * * * * * * * * * * * * * * * * //
Create time

Create mesh for time = 0

Read mesh in = 0.04 s

Overall mesh bounding box  : (-3 -1.99592 -1.99972) (8 1.99591 1.99484)
Relative tolerance         : 1e-06
Absolute matching distance : 1.23649e-05

Reading refinement surfaces.
Read refinement surfaces in = 0.05 s

Reading refinement shells.
Refinement level 3 for all cells inside wake_coarse
Refinement level 5 for all cells inside ogive
Refinement level 7 for all cells inside winglet
Refinement level 8 for all cells inside wake_near_1
Refinement level 7 for all cells inside wake_near_2
Read refinement shells in = 0 s

Setting refinement level of surface to be consistent with shells.
Checked shell refinement in = 0 s

Reading features.
Read edgeMesh rocket.eMesh
    points      : 225
    edges       : 273
    boundingBox : (-1 -0.115 -0.115) (1.02 0.115 0.115)

Refinement level according to distance to "rocket.eMesh" (225 points, 273 edges).
    level 8 for all cells within 0 metre.
Read features in = 0 s


Determining initial surface intersections
-----------------------------------------

Edge intersection testing:
    Number of edges             : 20016
    Number of edges to retest   : 20016
    Number of intersected edges : 0
Calculated surface intersections in = 0.09 s

Initial mesh : cells:6388  faces:20016  points:7259
Cells per refinement level:
    0	6388

Adding patches for surface regions
----------------------------------

Patch Type                Region                        
----- ----                ------                        
rocket:

3     wall                rocket                        

Added patches in = 0 s

 Foam::decompositionMethod::New 
{
    method          none;
    numberOfSubdomains 1;
}

Selecting decompositionMethod none
Layer thickness specified as first layer and overall thickness.

Refinement phase
----------------

Found point (0.001 0.1 0.001) in cell 4555 on processor 0

Feature refinement iteration 0
------------------------------

Marked for refinement due to explicit features             : 11 cells.
Determined cells to refine in = 0.08 s
Selected for feature refinement : 11 cells (out of 6388)
Edge intersection testing:
    Number of edges             : 20304
    Number of edges to retest   : 494
    Number of intersected edges : 4
Refined mesh in = 0.03 s
After refinement feature refinement iteration 0 : cells:6465  faces:20304  points:7404
Cells per refinement level:
    0	6377
    1	88

Feature refinement iteration 1
------------------------------

Marked for refinement due to explicit features             : 11 cells.
Determined cells to refine in = 0.1 s
Selected for feature refinement : 15 cells (out of 6465)
Edge intersection testing:
    Number of edges             : 20691
    Number of edges to retest   : 672
    Number of intersected edges : 12
Refined mesh in = 0.04 s
After refinement feature refinement iteration 1 : cells:6570  faces:20691  points:7593
Cells per refinement level:
    0	6373
    1	109
    2	88

Feature refinement iteration 2
------------------------------

Marked for refinement due to explicit features             : 39 cells.
Determined cells to refine in = 0.07 s
Selected for feature refinement : 87 cells (out of 6570)
Edge intersection testing:
    Number of edges             : 22794
    Number of edges to retest   : 3062
    Number of intersected edges : 84
Refined mesh in = 0.03 s
After refinement feature refinement iteration 2 : cells:7179  faces:22794  points:8506
Cells per refinement level:
    0	6349
    1	277
    2	241
    3	312

Feature refinement iteration 3
------------------------------

Marked for refinement due to explicit features             : 98 cells.
Determined cells to refine in = 0.08 s
Selected for feature refinement : 127 cells (out of 7179)
Edge intersection testing:
    Number of edges             : 25923
    Number of edges to retest   : 4709
    Number of intersected edges : 269
Refined mesh in = 0.03 s
After refinement feature refinement iteration 3 : cells:8068  faces:25923  points:9886
Cells per refinement level:
    0	6348
    1	281
    2	249
    3	406
    4	784

Feature refinement iteration 4
------------------------------

Marked for refinement due to explicit features             : 217 cells.
Determined cells to refine in = 0.09 s
Selected for feature refinement : 296 cells (out of 8068)
Edge intersection testing:
    Number of edges             : 33135
    Number of edges to retest   : 10540
    Number of intersected edges : 773
Refined mesh in = 0.05 s
After refinement feature refinement iteration 4 : cells:10140  faces:33135  points:13054
Cells per refinement level:
    0	6344
    1	308
    2	273
    3	480
    4	999
    5	1736

Feature refinement iteration 5
------------------------------

Marked for refinement due to explicit features             : 448 cells.
Determined cells to refine in = 0.16 s
Selected for feature refinement : 641 cells (out of 10140)
Edge intersection testing:
    Number of edges             : 48759
    Number of edges to retest   : 23660
    Number of intersected edges : 2748
Refined mesh in = 0.09 s
After refinement feature refinement iteration 5 : cells:14627  faces:48759  points:19869
Cells per refinement level:
    0	6344
    1	300
    2	320
    3	593
    4	1038
    5	2448
    6	3584

Feature refinement iteration 6
------------------------------

Marked for refinement due to explicit features             : 926 cells.
Determined cells to refine in = 0.24 s
Selected for feature refinement : 1273 cells (out of 14627)
Edge intersection testing:
    Number of edges             : 79950
    Number of edges to retest   : 47093
    Number of intersected edges : 8402
Refined mesh in = 0.18 s
After refinement feature refinement iteration 6 : cells:23538  faces:79950  points:33628
Cells per refinement level:
    0	6344
    1	300
    2	320
    3	580
    4	1088
    5	2600
    6	4898
    7	7408

Feature refinement iteration 7
------------------------------

Marked for refinement due to explicit features             : 2058 cells.
Determined cells to refine in = 0.37 s
Selected for feature refinement : 3781 cells (out of 23538)
Edge intersection testing:
    Number of edges             : 175065
    Number of edges to retest   : 139028
    Number of intersected edges : 20919
Refined mesh in = 0.44 s
After refinement feature refinement iteration 7 : cells:50005  faces:175065  points:77066
Cells per refinement level:
    0	6340
    1	328
    2	336
    3	651
    4	1407
    5	3325
    6	6732
    7	14422
    8	16464

Feature refinement iteration 8
------------------------------

Marked for refinement due to explicit features             : 0 cells.
Determined cells to refine in = 0.91 s
Selected for feature refinement : 0 cells (out of 50005)
Stopping refining since too few cells selected.


Surface refinement iteration 0
------------------------------

Marked for refinement due to surface intersection          : 148 cells.
Marked for refinement due to curvature/regions             : 3124 cells.
Determined cells to refine in = 0.07 s
Selected for refinement : 3458 cells (out of 50005)
Edge intersection testing:
    Number of edges             : 252747
    Number of edges to retest   : 135776
    Number of intersected edges : 29367
Refined mesh in = 0.61 s
After refinement surface refinement iteration 0 : cells:74211  faces:252747  points:105623
Cells per refinement level:
    0	6338
    1	334
    2	406
    3	697
    4	1552
    5	4061
    6	8354
    7	16989
    8	35480

Surface refinement iteration 1
------------------------------

Marked for refinement due to surface intersection          : 188 cells.
Marked for refinement due to curvature/regions             : 3084 cells.
Determined cells to refine in = 0.08 s
Selected for refinement : 3440 cells (out of 74211)
Edge intersection testing:
    Number of edges             : 329778
    Number of edges to retest   : 122751
    Number of intersected edges : 39186
Refined mesh in = 0.66 s
After refinement surface refinement iteration 1 : cells:98291  faces:329778  points:134371
Cells per refinement level:
    0	6328
    1	398
    2	494
    3	949
    4	1972
    5	4981
    6	8062
    7	21691
    8	53416

Surface refinement iteration 2
------------------------------

Marked for refinement due to surface intersection          : 300 cells.
Marked for refinement due to curvature/regions             : 3616 cells.
Determined cells to refine in = 0.1 s
Selected for refinement : 4164 cells (out of 98291)
Edge intersection testing:
    Number of edges             : 423534
    Number of edges to retest   : 139730
    Number of intersected edges : 50464
Refined mesh in = 0.87 s
After refinement surface refinement iteration 2 : cells:127439  faces:423534  points:169661
Cells per refinement level:
    0	6312
    1	502
    2	638
    3	1229
    4	2616
    5	6485
    6	7702
    7	21147
    8	80808

Surface refinement iteration 3
------------------------------

Marked for refinement due to surface intersection          : 550 cells.
Marked for refinement due to curvature/regions             : 768 cells.
Determined cells to refine in = 0.11 s
Selected for refinement : 1472 cells (out of 127439)
Edge intersection testing:
    Number of edges             : 456612
    Number of edges to retest   : 50408
    Number of intersected edges : 53938
Refined mesh in = 0.84 s
After refinement surface refinement iteration 3 : cells:137743  faces:456612  points:182054
Cells per refinement level:
    0	6308
    1	510
    2	782
    3	1487
    4	3186
    5	9989
    6	7638
    7	20891
    8	86952

Surface refinement iteration 4
------------------------------

Marked for refinement due to surface intersection          : 560 cells.
Marked for refinement due to curvature/regions             : 0 cells.
Determined cells to refine in = 0.17 s
Selected for refinement : 664 cells (out of 137743)
Edge intersection testing:
    Number of edges             : 471672
    Number of edges to retest   : 21276
    Number of intersected edges : 55218
Refined mesh in = 0.83 s
After refinement surface refinement iteration 4 : cells:142391  faces:471672  points:187828
Cells per refinement level:
    0	6292
    1	614
    2	926
    3	1743
    4	3762
    5	13573
    6	7638
    7	20891
    8	86952

Surface refinement iteration 5
------------------------------

Marked for refinement due to surface intersection          : 560 cells.
Marked for refinement due to curvature/regions             : 0 cells.
Determined cells to refine in = 0.15 s
Selected for refinement : 640 cells (out of 142391)
Edge intersection testing:
    Number of edges             : 486180
    Number of edges to retest   : 20144
    Number of intersected edges : 56474
Refined mesh in = 0.86 s
After refinement surface refinement iteration 5 : cells:146871  faces:486180  points:193384
Cells per refinement level:
    0	6292
    1	598
    2	1006
    3	1999
    4	4338
    5	17157
    6	7638
    7	20891
    8	86952

Surface refinement iteration 6
------------------------------

Marked for refinement due to surface intersection          : 544 cells.
Marked for refinement due to curvature/regions             : 0 cells.
Determined cells to refine in = 0.17 s
Selected for refinement : 632 cells (out of 146871)
Edge intersection testing:
    Number of edges             : 500388
    Number of edges to retest   : 19880
    Number of intersected edges : 57690
Refined mesh in = 0.78 s
After refinement surface refinement iteration 6 : cells:151295  faces:500388  points:198732
Cells per refinement level:
    0	6284
    1	646
    2	1102
    3	2127
    4	4914
    5	20741
    6	7638
    7	20891
    8	86952

Surface refinement iteration 7
------------------------------

Marked for refinement due to surface intersection          : 448 cells.
Marked for refinement due to curvature/regions             : 0 cells.
Determined cells to refine in = 0.15 s
Selected for refinement : 480 cells (out of 151295)
Edge intersection testing:
    Number of edges             : 511140
    Number of edges to retest   : 14796
    Number of intersected edges : 58682
Refined mesh in = 0.96 s
After refinement surface refinement iteration 7 : cells:154655  faces:511140  points:202748
Cells per refinement level:
    0	6284
    1	646
    2	1102
    3	2095
    4	4722
    5	24325
    6	7638
    7	20891
    8	86952

Surface refinement iteration 8
------------------------------

Marked for refinement due to surface intersection          : 0 cells.
Marked for refinement due to curvature/regions             : 0 cells.
Determined cells to refine in = 0.17 s
Selected for refinement : 0 cells (out of 154655)
Stopping refining since too few cells selected.


Removing mesh beyond surface intersections
------------------------------------------

Found point (0.001 0.1 0.001) in global region 0 out of 2 regions.
Keeping all cells in region 0 containing point (0.001 0.1 0.001)
Selected for keeping : 120420 cells.
Edge intersection testing:
    Number of edges             : 430516
    Number of edges to retest   : 48392
    Number of intersected edges : 58682

Shell refinement iteration 0
----------------------------

Marked for refinement due to distance to explicit features : 0 cells.
Marked for refinement due to refinement shells             : 12915 cells.
Determined cells to refine in = 4.93 s
Selected for internal refinement : 21352 cells (out of 120420)
Edge intersection testing:
    Number of edges             : 888598
    Number of edges to retest   : 745342
    Number of intersected edges : 64465
Refined mesh in = 2.5 s
After refinement shell refinement iteration 0 : cells:269884  faces:888598  points:348945
Cells per refinement level:
    0	6176
    1	1248
    2	2096
    3	10368
    4	7360
    5	28310
    6	24312
    7	50574
    8	139440

Shell refinement iteration 1
----------------------------

Marked for refinement due to distance to explicit features : 0 cells.
Marked for refinement due to refinement shells             : 38807 cells.
Determined cells to refine in = 0.23 s
Selected for internal refinement : 40108 cells (out of 269884)
Edge intersection testing:
    Number of edges             : 1749757
    Number of edges to retest   : 1130985
    Number of intersected edges : 74021
Refined mesh in = 4.24 s
After refinement shell refinement iteration 1 : cells:550640  faces:1749757  points:648383
Cells per refinement level:
    0	5952
    1	2129
    2	7800
    3	22424
    4	8348
    5	56289
    6	31800
    7	208842
    8	207056

Shell refinement iteration 2
----------------------------

Marked for refinement due to distance to explicit features : 0 cells.
Marked for refinement due to refinement shells             : 54951 cells.
Determined cells to refine in = 0.55 s
Selected for internal refinement : 56742 cells (out of 550640)
Edge intersection testing:
    Number of edges             : 2955793
    Number of edges to retest   : 1616602
    Number of intersected edges : 76579
Refined mesh in = 5.66 s
After refinement shell refinement iteration 2 : cells:947834  faces:2955793  points:1060020
Cells per refinement level:
    0	5860
    1	2146
    2	7519
    3	70402
    4	8494
    5	69679
    6	35820
    7	398650
    8	349264

Shell refinement iteration 3
----------------------------

Marked for refinement due to distance to explicit features : 0 cells.
Marked for refinement due to refinement shells             : 64271 cells.
Determined cells to refine in = 0.65 s
Selected for internal refinement : 65139 cells (out of 947834)
Edge intersection testing:
    Number of edges             : 4336423
    Number of edges to retest   : 1760775
    Number of intersected edges : 76579
Refined mesh in = 7.24 s
After refinement shell refinement iteration 3 : cells:1403807  faces:4336423  points:1528763
Cells per refinement level:
    0	5860
    1	2146
    2	5594
    3	85658
    4	8460
    5	73317
    6	59226
    7	553162
    8	610384

Shell refinement iteration 4
----------------------------

Marked for refinement due to distance to explicit features : 0 cells.
Marked for refinement due to refinement shells             : 115466 cells.
Determined cells to refine in = 0.92 s
Selected for internal refinement : 116468 cells (out of 1403807)
Edge intersection testing:
    Number of edges             : 6802837
    Number of edges to retest   : 2934233
    Number of intersected edges : 76579
Refined mesh in = 12.67 s
After refinement shell refinement iteration 4 : cells:2219083  faces:6802837  points:2364710
Cells per refinement level:
    0	5860
    1	2146
    2	5594
    3	85558
    4	8780
    5	69575
    6	76856
    7	832090
    8	1132624

Shell refinement iteration 5
----------------------------

Marked for refinement due to distance to explicit features : 0 cells.
Marked for refinement due to refinement shells             : 99374 cells.
Determined cells to refine in = 1.44 s
Selected for internal refinement : 100342 cells (out of 2219083)
Edge intersection testing:
    Number of edges             : 8926876
    Number of edges to retest   : 2588641
    Number of intersected edges : 76579
Refined mesh in = 14.57 s
After refinement shell refinement iteration 5 : cells:2921477  faces:8926876  points:3084023
Cells per refinement level:
    0	5860
    1	2146
    2	5594
    3	85506
    4	9064
    5	68721
    6	36728
    7	1232514
    8	1475344

Shell refinement iteration 6
----------------------------

Marked for refinement due to distance to explicit features : 0 cells.
Marked for refinement due to refinement shells             : 8388 cells.
Determined cells to refine in = 1.59 s
Selected for internal refinement : 9098 cells (out of 2921477)
Edge intersection testing:
    Number of edges             : 9119122
    Number of edges to retest   : 346130
    Number of intersected edges : 76579
Refined mesh in = 11.57 s
After refinement shell refinement iteration 6 : cells:2985163  faces:9119122  points:3148902
Cells per refinement level:
    0	5860
    1	2146
    2	5594
    3	85474
    4	9230
    5	68813
    6	33404
    7	1299298
    8	1475344

Shell refinement iteration 7
----------------------------

Marked for refinement due to distance to explicit features : 0 cells.
Marked for refinement due to refinement shells             : 1714 cells.
Determined cells to refine in = 1.74 s
Selected for internal refinement : 1836 cells (out of 2985163)
Edge intersection testing:
    Number of edges             : 9157966
    Number of edges to retest   : 84568
    Number of intersected edges : 76579
Refined mesh in = 12.03 s
After refinement shell refinement iteration 7 : cells:2998015  faces:9157966  points:3162043
Cells per refinement level:
    0	5860
    1	2146
    2	5594
    3	85466
    4	9262
    5	68987
    6	32346
    7	1313010
    8	1475344

Shell refinement iteration 8
----------------------------

Marked for refinement due to distance to explicit features : 0 cells.
Marked for refinement due to refinement shells             : 150 cells.
Determined cells to refine in = 1.66 s
Selected for internal refinement : 166 cells (out of 2998015)
Edge intersection testing:
    Number of edges             : 9161464
    Number of edges to retest   : 10786
    Number of intersected edges : 76579
Refined mesh in = 12.14 s
After refinement shell refinement iteration 8 : cells:2999177  faces:9161464  points:3163217
Cells per refinement level:
    0	5860
    1	2146
    2	5594
    3	85466
    4	9258
    5	69007
    6	32292
    7	1314210
    8	1475344

Shell refinement iteration 9
----------------------------

Marked for refinement due to distance to explicit features : 0 cells.
Marked for refinement due to refinement shells             : 4 cells.
Determined cells to refine in = 1.6 s
Selected for internal refinement : 4 cells (out of 2999177)
Stopping refining since too few cells selected.


Dangling coarse cells refinement iteration 0
--------------------------------------------

Determined cells to refine in = 0.1 s
Selected for refinement : 0 cells (out of 2999177)
Stopping refining since too few cells selected.


Dangling coarse cells refinement iteration 0
--------------------------------------------

Determined cells to refine in = 0.09 s
Selected for refinement : 0 cells (out of 2999177)
Stopping refining since too few cells selected.


Splitting mesh at surface intersections
---------------------------------------

Introducing baffles for 76579 faces that are intersected by the surface.

Edge intersection testing:
    Number of edges             : 9238043
    Number of edges to retest   : 536473
    Number of intersected edges : 152296
Created baffles in = 9.55 s


After introducing baffles : cells:2999177  faces:9238043  points:3163217
Cells per refinement level:
    0	5860
    1	2146
    2	5594
    3	85466
    4	9258
    5	69007
    6	32292
    7	1314210
    8	1475344

Introducing baffles to block off problem cells
----------------------------------------------

markFacesOnProblemCells : marked 70902 additional internal faces to be converted into baffles.
Analyzed problem cells in = 7.15 s


Introducing baffles to delete problem cells.

Edge intersection testing:
    Number of edges             : 9308945
    Number of edges to retest   : 224547
    Number of intersected edges : 152297
Created baffles in = 8.93 s


After introducing baffles : cells:2999177  faces:9308945  points:3163217
Cells per refinement level:
    0	5860
    1	2146
    2	5594
    3	85466
    4	9258
    5	69007
    6	32292
    7	1314210
    8	1475344

Remove unreachable sections of mesh
-----------------------------------

Keeping all cells in region 0 containing point (0.001 0.1 0.001)
Selected for keeping : 2836314 cells.
Edge intersection testing:
    Number of edges             : 8672663
    Number of edges to retest   : 0
    Number of intersected edges : 76396
Split mesh in = 67.54 s


After subsetting : cells:2836314  faces:8672663  points:3000709
Cells per refinement level:
    0	5860
    1	2146
    2	5594
    3	85466
    4	9258
    5	62537
    6	32041
    7	1262886
    8	1370526

Handling cells with snap problems
---------------------------------

Introducing baffles for 76396 faces that are intersected by the surface.

Edge intersection testing:
    Number of edges             : 8672663
    Number of edges to retest   : 272209
    Number of intersected edges : 76396
Created baffles in = 7.42 s


After introducing baffles : cells:2836314  faces:8672663  points:3000709
Cells per refinement level:
    0	5860
    1	2146
    2	5594
    3	85466
    4	9258
    5	62537
    6	32041
    7	1262886
    8	1370526

Introducing baffles to block off problem cells
----------------------------------------------

markFacesOnProblemCells : marked 0 additional internal faces to be converted into baffles.
Analyzed problem cells in = 6.59 s


Introducing baffles to delete problem cells.

Edge intersection testing:
    Number of edges             : 8672663
    Number of edges to retest   : 0
    Number of intersected edges : 76396
Created baffles in = 6.71 s


After introducing baffles : cells:2836314  faces:8672663  points:3000709
Cells per refinement level:
    0	5860
    1	2146
    2	5594
    3	85466
    4	9258
    5	62537
    6	32041
    7	1262886
    8	1370526

Remove unreachable sections of mesh
-----------------------------------

Keeping all cells in region 0 containing point (0.001 0.1 0.001)
Selected for keeping : 2836314 cells.
Edge intersection testing:
    Number of edges             : 8672663
    Number of edges to retest   : 0
    Number of intersected edges : 76396
Split mesh in = 61.42 s


After subsetting : cells:2836314  faces:8672663  points:3000709
Cells per refinement level:
    0	5860
    1	2146
    2	5594
    3	85466
    4	9258
    5	62537
    6	32041
    7	1262886
    8	1370526

Merge free-standing baffles
---------------------------

freeStandingBaffles : detected 360 free-standing baffles out of 360

freeStandingBaffles : detected 121 planar (within 90 degrees) free-standing baffles out of 360

Detected free-standing baffles : 121
Edge intersection testing:
    Number of edges             : 8672542
    Number of edges to retest   : 121
    Number of intersected edges : 76275

Introducing baffles to block off problem cells
----------------------------------------------

markFacesOnProblemCells : marked 0 additional internal faces to be converted into baffles.
Analyzed problem cells in = 16.05 s


Introducing baffles to delete problem cells.

Edge intersection testing:
    Number of edges             : 8672542
    Number of edges to retest   : 0
    Number of intersected edges : 76275
Created baffles in = 6.78 s


After introducing baffles : cells:2836314  faces:8672542  points:3000709
Cells per refinement level:
    0	5860
    1	2146
    2	5594
    3	85466
    4	9258
    5	62537
    6	32041
    7	1262886
    8	1370526
Merged free-standing baffles in = 0.02 s


dupNonManifoldPoints : Found : 235 non-manifold points (out of 3000709)
Edge intersection testing:
    Number of edges             : 8672542
    Number of edges to retest   : 0
    Number of intersected edges : 76275
Detected unsplittable baffles : 0

Merge refined boundary faces
----------------------------

Merging 246 sets of faces.

Edge intersection testing:
    Number of edges             : 8672294
    Number of edges to retest   : 1716
    Number of intersected edges : 76027

Undo iteration 0
----------------
Checking faces in error :
    faces with interpolation weights (0..1)  < 0           : 0
    faces with volume ratio of neighbour cells < 0         : 0

Merging all points on surface that
- are used by only two boundary faces and
- make an angle with a cosine of more than 0.707107.

Removing 242 straight edge points ...

Edge intersection testing:
    Number of edges             : 8672294
    Number of edges to retest   : 1726
    Number of intersected edges : 76027

Undo iteration 0
----------------
Checking faces in error :
    faces with interpolation weights (0..1)  < 0           : 0
    faces with volume ratio of neighbour cells < 0         : 0
Refined mesh : cells:2836314  faces:8672294  points:3000701
Cells per refinement level:
    0	5860
    1	2146
    2	5594
    3	85466
    4	9258
    5	62537
    6	32041
    7	1262886
    8	1370526
Writing mesh to time 1
Wrote mesh in = 38.19 s.
Mesh refined in = 345.04 s.

Morphing phase
--------------


Snapping to features in 5 iterations ...
Constructing mesh displacer ...
Using mesh parameters 
{
    maxNonOrtho     180;
    maxBoundarySkewness -1;
    maxInternalSkewness -1;
    maxConcave      180;
    minVol          -1e+30;
    minTetQuality   -1e+30;
    minArea         -1;
    minTwist        -2;
    minDeterminant  -1;
    minFaceWeight   0;
    minVolRatio     0;
    minTriangleTwist -1;
    nSmoothScale    100;
    errorReduction  0.75;
}


Checking initial mesh ...
Checking faces in error :
    faces with interpolation weights (0..1)  < 0           : 0
    faces with volume ratio of neighbour cells < 0         : 0
Detected 0 illegal faces (concave, zero area or negative cell pyramid volume)
Checked initial mesh in = 1.98 s


Smoothing patch points ...
Smoothing iteration 0
Found 470 non-manifold point(s).

Scaling iteration 0
Moving mesh using displacement scaling : min:1  max:1
Checking faces in error :
    faces with interpolation weights (0..1)  < 0           : 0
    faces with volume ratio of neighbour cells < 0         : 0
Successfully moved mesh

Smoothing iteration 1
Found 0 non-manifold point(s).

Scaling iteration 0
Moving mesh using displacement scaling : min:1  max:1
Checking faces in error :
    faces with interpolation weights (0..1)  < 0           : 0
    faces with volume ratio of neighbour cells < 0         : 0
Successfully moved mesh

Smoothing iteration 2
Found 0 non-manifold point(s).

Scaling iteration 0
Moving mesh using displacement scaling : min:1  max:1
Checking faces in error :
    faces with interpolation weights (0..1)  < 0           : 0
    faces with volume ratio of neighbour cells < 0         : 0
Successfully moved mesh

Patch points smoothed in = 14.35 s



Morph iteration 0
-----------------
Calculating patchDisplacement as distance to nearest surface point ...
Wanted displacement : average:0.000288762 min:2.80166e-08 max:0.00347598
Calculated surface displacement in = 0.06 s


Detecting near surfaces ...
Overriding nearest with intersection of close gaps at 0 out of 76935 points.
Overriding displacement on features :
   implicit features    : false
   explicit features    : true
   multi-patch features : false

Detected 16 baffle edges out of 153382 edges.
Initially selected 542 points out of 76935 for reverse attraction.
Selected 1692 points out of 76935 for reverse attraction.
Stringing feature edges : changed 22 points
Stringing feature edges : changed 0 points
Attraction:
     linear   : max:(0.000812451 -0.00155325 0.00300162) avg:(-3.99743e-06 -1.07114e-06 -5.05384e-05)
     feature  : max:(0.000345841 0.000519889 -0.000642011) avg:(1.49123e-06 -7.52295e-09 -5.42218e-07)
Feature analysis : total master points:76935 attraction to :
    feature point   : 0
    feature edge    : 538
    nearest surface : 0
    rest            : 76397

--> FOAM Warning : Displacement (-1.57067e-13 -2.89506e-05 -3.38829e-05) at mesh point 7881 coord (1 -0.000520669 -0.114286) points through the surrounding patch faces
Smoothing displacement ...
Iteration 0
Iteration 10
Iteration 20
Iteration 30
Iteration 40
Iteration 50
Iteration 60
Iteration 70
Iteration 80
Iteration 90
Iteration 100
Iteration 110
Iteration 120
Iteration 130
Iteration 140
Iteration 150
Iteration 160
Iteration 170
Iteration 180
Displacement smoothed in = 66.75 s


Moving mesh ...

Iteration 0
Moving mesh using displacement scaling : min:1  max:1
Checking faces in error :
    faces with interpolation weights (0..1)  < 0           : 0
    faces with volume ratio of neighbour cells < 0         : 0
Successfully moved mesh
Moved mesh in = 4.82 s



Morph iteration 1
-----------------
Calculating patchDisplacement as distance to nearest surface point ...
Wanted displacement : average:0.00025291 min:2.06799e-09 max:0.00322803
Calculated surface displacement in = 0.09 s


Detecting near surfaces ...
Overriding nearest with intersection of close gaps at 0 out of 76935 points.
Overriding displacement on features :
   implicit features    : false
   explicit features    : true
   multi-patch features : false

Detected 16 baffle edges out of 153382 edges.
Initially selected 542 points out of 76935 for reverse attraction.
Selected 1692 points out of 76935 for reverse attraction.
Stringing feature edges : changed 20 points
Stringing feature edges : changed 0 points
Attraction:
     linear   : max:(0.000754497 -0.00144245 0.00278751) avg:(-3.42716e-06 -9.23889e-07 -4.12969e-05)
     feature  : max:(-0.000725262 2.93775e-05 0.000452389) avg:(1.35968e-06 2.15018e-08 -5.08457e-07)
Feature analysis : total master points:76935 attraction to :
    feature point   : 0
    feature edge    : 538
    nearest surface : 0
    rest            : 76397

--> FOAM Warning : Displacement (-8.60918e-13 -3.59585e-05 -5.39839e-05) at mesh point 7881 coord (1 -0.00054962 -0.11432) points through the surrounding patch faces
Smoothing displacement ...
Iteration 0
Iteration 10
Iteration 20
Iteration 30
Iteration 40
Iteration 50
Iteration 60
Iteration 70
Iteration 80
Iteration 90
Iteration 100
Iteration 110
Iteration 120
Iteration 130
Iteration 140
Iteration 150
Iteration 160
Iteration 170
Iteration 180
Displacement smoothed in = 65.37 s


Moving mesh ...

Iteration 0
Moving mesh using displacement scaling : min:1  max:1
Checking faces in error :
    faces with interpolation weights (0..1)  < 0           : 0
    faces with volume ratio of neighbour cells < 0         : 0
Successfully moved mesh
Moved mesh in = 4.62 s



Morph iteration 2
-----------------
Calculating patchDisplacement as distance to nearest surface point ...
Wanted displacement : average:0.000184418 min:2.99656e-10 max:0.00256856
Calculated surface displacement in = 0.11 s


Detecting near surfaces ...
Overriding nearest with intersection of close gaps at 0 out of 76935 points.
Overriding displacement on features :
   implicit features    : false
   explicit features    : true
   multi-patch features : false

Detected 16 baffle edges out of 153382 edges.
Initially selected 538 points out of 76935 for reverse attraction.
Selected 1674 points out of 76935 for reverse attraction.
Stringing feature edges : changed 12 points
Stringing feature edges : changed 0 points
Attraction:
     linear   : max:(0.000600358 -0.00114777 0.00221804) avg:(-2.40762e-06 -6.36597e-07 -2.58447e-05)
     feature  : max:(-0.000243952 9.34389e-05 -0.000894119) avg:(1.07404e-06 4.86033e-08 -4.05748e-07)
Feature analysis : total master points:76935 attraction to :
    feature point   : 0
    feature edge    : 534
    nearest surface : 0
    rest            : 76401

--> FOAM Warning : Displacement (-1.55035e-14 -8.54816e-06 -4.15262e-05) at mesh point 7881 coord (1 -0.000585578 -0.114374) points through the surrounding patch faces
Smoothing displacement ...
Iteration 0
Iteration 10
Iteration 20
Iteration 30
Iteration 40
Iteration 50
Iteration 60
Iteration 70
Iteration 80
Iteration 90
Iteration 100
Iteration 110
Iteration 120
Iteration 130
Iteration 140
Iteration 150
Iteration 160
Iteration 170
Iteration 180
Displacement smoothed in = 66.27 s


Moving mesh ...

Iteration 0
Moving mesh using displacement scaling : min:1  max:1
Checking faces in error :
    faces with interpolation weights (0..1)  < 0           : 0
    faces with volume ratio of neighbour cells < 0         : 0
Successfully moved mesh
Moved mesh in = 4.79 s



Morph iteration 3
-----------------
Calculating patchDisplacement as distance to nearest surface point ...
Wanted displacement : average:0.000102171 min:1.18157e-09 max:0.00154102
Calculated surface displacement in = 0.09 s


Detecting near surfaces ...
Overriding nearest with intersection of close gaps at 0 out of 76935 points.
Overriding displacement on features :
   implicit features    : false
   explicit features    : true
   multi-patch features : false

Detected 16 baffle edges out of 153382 edges.
Initially selected 538 points out of 76935 for reverse attraction.
Selected 1672 points out of 76935 for reverse attraction.
Stringing feature edges : changed 6 points
Stringing feature edges : changed 0 points
Attraction:
     linear   : max:(0.000360188 -0.000688611 0.00133072) avg:(-1.23736e-06 -3.24545e-07 -1.09944e-05)
     feature  : max:(-0.000101707 0.000145158 -0.000505944) avg:(6.27196e-07 5.03761e-08 -2.39331e-07)
Feature analysis : total master points:76935 attraction to :
    feature point   : 0
    feature edge    : 534
    nearest surface : 0
    rest            : 76401

--> FOAM Warning : Displacement (0 3.33181e-05 -9.06797e-05) at mesh point 51065 coord (1.00117 -6.10225e-05 -0.114867) points through the surrounding patch faces
Smoothing displacement ...
Iteration 0
Iteration 10
Iteration 20
Iteration 30
Iteration 40
Iteration 50
Iteration 60
Iteration 70
Iteration 80
Iteration 90
Iteration 100
Iteration 110
Iteration 120
Iteration 130
Iteration 140
Iteration 150
Iteration 160
Iteration 170
Iteration 180
Displacement smoothed in = 62.06 s


Moving mesh ...

Iteration 0
Moving mesh using displacement scaling : min:1  max:1
Checking faces in error :
    faces with interpolation weights (0..1)  < 0           : 0
    faces with volume ratio of neighbour cells < 0         : 0
Successfully moved mesh
Moved mesh in = 4.19 s



Morph iteration 4
-----------------
Calculating patchDisplacement as distance to nearest surface point ...
Wanted displacement : average:3.39781e-05 min:4.64621e-10 max:0.000519227
Calculated surface displacement in = 0.09 s


Detecting near surfaces ...
Overriding nearest with intersection of close gaps at 0 out of 76935 points.
Overriding displacement on features :
   implicit features    : false
   explicit features    : true
   multi-patch features : false

Detected 16 baffle edges out of 153382 edges.
Initially selected 535 points out of 76935 for reverse attraction.
Selected 1663 points out of 76935 for reverse attraction.
Stringing feature edges : changed 4 points
Stringing feature edges : changed 0 points
Attraction:
     linear   : max:(0.000121361 -0.000232018 0.00044837) avg:(-3.93529e-07 -1.25471e-07 -2.35297e-06)
     feature  : max:(1.20496e-05 0.00039697 -0.000202267) avg:(2.10733e-07 2.40211e-08 -9.38252e-08)
Feature analysis : total master points:76935 attraction to :
    feature point   : 0
    feature edge    : 531
    nearest surface : 0
    rest            : 76404

--> FOAM Warning : Displacement (-2.22045e-16 -2.51933e-06 -2.51933e-06) at mesh point 7881 coord (1 -0.000568017 -0.114427) points through the surrounding patch faces
Smoothing displacement ...
Iteration 0
Iteration 10
Iteration 20
Iteration 30
Iteration 40
Iteration 50
Iteration 60
Iteration 70
Iteration 80
Iteration 90
Iteration 100
Iteration 110
Iteration 120
Iteration 130
Iteration 140
Iteration 150
Iteration 160
Iteration 170
Iteration 180
Displacement smoothed in = 60.17 s


Moving mesh ...

Iteration 0
Moving mesh using displacement scaling : min:1  max:1
Checking faces in error :
    faces with interpolation weights (0..1)  < 0           : 0
    faces with volume ratio of neighbour cells < 0         : 0
Successfully moved mesh
Moved mesh in = 4.41 s


Repatching faces according to nearest surface ...
Repatched 0 faces in = 0.4 s


Edge intersection testing:
    Number of edges             : 8672294
    Number of edges to retest   : 281616
    Number of intersected edges : 76562
Merging 11358 sets of faces.

Edge intersection testing:
    Number of edges             : 8660139
    Number of edges to retest   : 46423
    Number of intersected edges : 63471

Undo iteration 0
----------------
Checking faces in error :
    faces with interpolation weights (0..1)  < 0           : 0
    faces with volume ratio of neighbour cells < 0         : 0

Merging all points on surface that
- are used by only two boundary faces and
- make an angle with a cosine of more than 6.12323e-17.

Removing 10291 straight edge points ...

Edge intersection testing:
    Number of edges             : 8660139
    Number of edges to retest   : 43629
    Number of intersected edges : 63467

Undo iteration 0
----------------
Checking faces in error :
    faces with interpolation weights (0..1)  < 0           : 0
    faces with volume ratio of neighbour cells < 0         : 0
Snapped mesh : cells:2836314  faces:8660139  points:2989620
Cells per refinement level:
    0	5860
    1	2146
    2	5594
    3	85466
    4	9258
    5	62537
    6	32041
    7	1262886
    8	1370526
Writing mesh to time 2
Wrote mesh in = 43.78 s.
Mesh snapped in = 404.4 s.

Shrinking and layer addition phase
----------------------------------

Using mesh parameters 
{
    maxNonOrtho     180;
    maxBoundarySkewness -1;
    maxInternalSkewness -1;
    maxConcave      180;
    minVol          -1e+30;
    minTetQuality   -1e+30;
    minArea         -1;
    minTwist        -2;
    minDeterminant  -1;
    minFaceWeight   0;
    minVolRatio     0;
    minTriangleTwist -1;
    nSmoothScale    100;
    errorReduction  0.75;
}



Merging all faces of a cell
---------------------------
    - which are on the same patch
    - which make an angle < 90 degrees
      (cos:6.12323e-17)
    - as long as the resulting face doesn't become concave by more than 90 degrees
      (0=straight, 180=fully concave)

Merging 0 sets of faces.

No faces merged ...

Merging all points on surface that
- are used by only two boundary faces and
- make an angle with a cosine of more than 6.12323e-17.

No straight edges simplified and no points removed ...

Checking mesh manifoldness ...

Checking initial mesh ...
Checking faces in error :
    faces with interpolation weights (0..1)  < 0           : 0
    faces with volume ratio of neighbour cells < 0         : 0
Detected 0 illegal faces (concave, zero area or negative cell pyramid volume)

Adding in total 0 inter-processor patches to handle extrusion of non-manifold processor boundaries.

Handling points with inconsistent layer specification ...

Handling non-manifold points ...

Checking patch manifoldness ...
Outside of local patch is multiply connected across edges or points at 0 points.
Set displacement to zero for all 0 non-manifold points

Handling feature edges ...

patch  faces    layers avg thickness[m]
                       near-wall overall
-----  -----    ------ --------- -------
rocket 64294    10     2e-05     0.0015  

Selecting externalDisplacementMeshMover displacementMedialAxis
displacementMedialAxis : Calculating distance to Medial Axis ...
displacementMedialAxis : Smoothing normals ...
    Iteration 0   residual 0.0204139
    Iteration 10   residual 0.00879412
displacementMedialAxis : Inserting points on patch inlet if angle to nearest layer patch > 20 degrees.
displacementMedialAxis : Inserting points on patch outlet if angle to nearest layer patch > 20 degrees.
displacementMedialAxis : Inserting points on patch walls if angle to nearest layer patch > 20 degrees.
displacementMedialAxis : Smoothing normals in interior ...
    Iteration 0   residual 0.0277888
    Iteration 10   residual 0.00607542

Layer addition iteration 0
--------------------------

Determining displacement for added points according to pointNormal ...
Detected 0 points with point normal pointing through faces.
Reset displacement at 0 points to average of surrounding points.

displacementMedialAxis : Smoothing using Medial Axis ...
displacementMedialAxis : Reducing layer thickness at 0 nodes where thickness to medial axis distance is large 
displacementMedialAxis : Removing isolated regions ...
displacementMedialAxis : Number of isolated points extrusion stopped : 0
displacementMedialAxis : Smoothing field ...
    Iteration 0   residual 2.34509e-20
    Iteration 10   residual 1.62332e-20
displacementMedialAxis : Moving mesh ...
displacementMedialAxis : Iteration 0
Moving mesh using displacement scaling : min:1  max:1
Checking faces in error :
    faces with interpolation weights (0..1)  < 0           : 0
    faces with volume ratio of neighbour cells < 0         : 0
displacementMedialAxis : Successfully moved mesh
displacementMedialAxis : Finished moving mesh ...
truncateDisplacement : Unextruded 0 faces due to non-consecutive vertices being extruded.
truncateDisplacement : Unextruded 0 faces due to stringed edges with inconsistent extrusion.

Setting up information for layer truncation ...

Checking mesh with layer ...
Checking faces in error :
    faces with interpolation weights (0..1)  < 0           : 0
    faces with volume ratio of neighbour cells < 0         : 0
Detected 0 illegal faces (concave, zero area or negative cell pyramid volume)
Extruding 64294 out of 64294 faces (100%). Removed extrusion at 0 faces.
Added 642940 out of 642940 cells (100%).
Edge intersection testing:
    Number of edges             : 10604459
    Number of edges to retest   : 0
    Number of intersected edges : 696987
Writing 642940 added cells to cellSet addedCells
Writing 578646 faces inside added layer to faceSet layerFaces

Writing fields with layer information:
    nSurfaceLayers    : actual number of layers
    thickness         : overall layer thickness
    thicknessFraction : overall layer thickness (fraction of desired thickness)


patch  faces    layers   overall thickness
                         [m]       [%]
-----  -----    ------   ---       ---
rocket 64294    10       0.0015    100     

Layer mesh : cells:3479254  faces:10604459  points:3648160
Cells per refinement level:
    0	5860
    1	2146
    2	5594
    3	85466
    4	9258
    5	113027
    6	33531
    7	1356866
    8	1867506
Writing mesh to time 3
Wrote mesh in = 74.9 s.
Layers added in = 74.9 s.
Checking final mesh ...
Checking faces in error :
    faces with interpolation weights (0..1)  < 0           : 0
    faces with volume ratio of neighbour cells < 0         : 0
Finished meshing without any errors
Finished meshing in = 824.76 s.
End

