/*---------------------------------------------------------------------------*\
  =========                 |
  \\      /  F ield         | OpenFOAM: The Open Source CFD Toolbox
   \\    /   O peration     | Website:  https://openfoam.org
    \\  /    A nd           | Version:  7
     \\/     M anipulation  |
\*---------------------------------------------------------------------------*/
Build  : 7
Exec   : snappyHexMesh
Date   : Mar 13 2021
Time   : 12:11:50
Host   : "lucamignozzi-ROG-Zephyrus-G14-GA401IV-GA401IV"
PID    : 17281
I/O    : uncollated
Case   : /home/lucamignozzi/Desktop/Skyward/computational-fluid-dynamics/meshSnappy
nProcs : 1
sigFpe : Enabling floating point exception trapping (FOAM_SIGFPE).
fileModificationChecking : Monitoring run-time modified files using timeStampMaster (fileModificationSkew 10)
allowSystemOperations : Allowing user-supplied system call operations

// * * * * * * * * * * * * * * * * * * * * * * * * * * * * * * * * * * * * * //
Create time

Create mesh for time = 0

Read mesh in = 0.06 s

Overall mesh bounding box  : (-3 -2.994 -3.00006) (13 2.9941 2.99233)
Relative tolerance         : 1e-06
Absolute matching distance : 1.81043e-05

Reading refinement surfaces.
Read refinement surfaces in = 0.01 s

Reading refinement shells.
Refinement level 5 for all cells inside ogive
Refinement level 7 for all cells inside winglet
Refinement level 7 for all cells inside wake_near_1
Refinement level 6 for all cells inside wake_near_2
Refinement level 5 for all cells inside wake_near_3
Refinement level 3 for all cells inside wake_coarse
Read refinement shells in = 0 s

Setting refinement level of surface to be consistent with shells.
Checked shell refinement in = 0 s

Reading features.
Read edgeMesh rocket.eMesh
    points      : 203
    edges       : 237
    boundingBox : (0 -0.165245 -0.0971039) (2.495 0.168821 0.19238)

Refinement level according to distance to "rocket.eMesh" (203 points, 237 edges).
    level 8 for all cells within 0 metre.
Read features in = 0 s


Determining initial surface intersections
-----------------------------------------

Edge intersection testing:
    Number of edges             : 58292
    Number of edges to retest   : 58292
    Number of intersected edges : 3
Calculated surface intersections in = 0.08 s

Initial mesh : cells:18775  faces:58292  points:20772
Cells per refinement level:
    0	18775

Adding patches for surface regions
----------------------------------

Patch Type                Region                        
----- ----                ------                        
rocket:

3     wall                rocket                        

Added patches in = 0 s

 Foam::decompositionMethod::New 
{
    method          none;
    numberOfSubdomains 1;
}

Selecting decompositionMethod none
Layer thickness specified as first layer and overall thickness.

Refinement phase
----------------

Found point (0.001 0.1 0.001) in cell 14442 on processor 0

Feature refinement iteration 0
------------------------------

Marked for refinement due to explicit features             : 11 cells.
Determined cells to refine in = 0.1 s
Selected for feature refinement : 11 cells (out of 18775)
Edge intersection testing:
    Number of edges             : 58583
    Number of edges to retest   : 502
    Number of intersected edges : 9
Refined mesh in = 0.04 s
After refinement feature refinement iteration 0 : cells:18852  faces:58583  points:20920
Cells per refinement level:
    0	18764
    1	88

Feature refinement iteration 1
------------------------------

Marked for refinement due to explicit features             : 24 cells.
Determined cells to refine in = 0.1 s
Selected for feature refinement : 40 cells (out of 18852)
Edge intersection testing:
    Number of edges             : 59594
    Number of edges to retest   : 1582
    Number of intersected edges : 79
Refined mesh in = 0.05 s
After refinement feature refinement iteration 1 : cells:19132  faces:59594  points:21393
Cells per refinement level:
    0	18748
    1	192
    2	192

Feature refinement iteration 2
------------------------------

Marked for refinement due to explicit features             : 50 cells.
Determined cells to refine in = 0.1 s
Selected for feature refinement : 88 cells (out of 19132)
Edge intersection testing:
    Number of edges             : 61772
    Number of edges to retest   : 3447
    Number of intersected edges : 273
Refined mesh in = 0.05 s
After refinement feature refinement iteration 2 : cells:19748  faces:61772  points:22372
Cells per refinement level:
    0	18734
    1	280
    2	334
    3	400

Feature refinement iteration 3
------------------------------

Marked for refinement due to explicit features             : 121 cells.
Determined cells to refine in = 0.11 s
Selected for feature refinement : 225 cells (out of 19748)
Edge intersection testing:
    Number of edges             : 67286
    Number of edges to retest   : 8463
    Number of intersected edges : 744
Refined mesh in = 0.06 s
After refinement feature refinement iteration 3 : cells:21323  faces:67286  points:24820
Cells per refinement level:
    0	18728
    1	303
    2	461
    3	863
    4	968

Feature refinement iteration 4
------------------------------

Marked for refinement due to explicit features             : 259 cells.
Determined cells to refine in = 0.11 s
Selected for feature refinement : 482 cells (out of 21323)
Edge intersection testing:
    Number of edges             : 79226
    Number of edges to retest   : 18703
    Number of intersected edges : 2055
Refined mesh in = 0.07 s
After refinement feature refinement iteration 4 : cells:24697  faces:79226  points:30192
Cells per refinement level:
    0	18719
    1	360
    2	535
    3	1078
    4	1933
    5	2072

Feature refinement iteration 5
------------------------------

Marked for refinement due to explicit features             : 560 cells.
Determined cells to refine in = 0.13 s
Selected for feature refinement : 994 cells (out of 24697)
Edge intersection testing:
    Number of edges             : 103946
    Number of edges to retest   : 37809
    Number of intersected edges : 5378
Refined mesh in = 0.1 s
After refinement feature refinement iteration 5 : cells:31655  faces:103946  points:41338
Cells per refinement level:
    0	18719
    1	358
    2	544
    3	1039
    4	2363
    5	4152
    6	4480

Feature refinement iteration 6
------------------------------

Marked for refinement due to explicit features             : 1254 cells.
Determined cells to refine in = 0.16 s
Selected for feature refinement : 2327 cells (out of 31655)
Edge intersection testing:
    Number of edges             : 161216
    Number of edges to retest   : 88813
    Number of intersected edges : 13492
Refined mesh in = 0.2 s
After refinement feature refinement iteration 6 : cells:47944  faces:161216  points:66830
Cells per refinement level:
    0	18719
    1	347
    2	616
    3	1102
    4	2639
    5	5367
    6	9122
    7	10032

Feature refinement iteration 7
------------------------------

Marked for refinement due to explicit features             : 3292 cells.
Determined cells to refine in = 0.23 s
Selected for feature refinement : 5840 cells (out of 47944)
Edge intersection testing:
    Number of edges             : 305171
    Number of edges to retest   : 215980
    Number of intersected edges : 31335
Refined mesh in = 0.4 s
After refinement feature refinement iteration 7 : cells:88824  faces:305171  points:130707
Cells per refinement level:
    0	18719
    1	342
    2	641
    3	1173
    4	2881
    5	6091
    6	11077
    7	21564
    8	26336

Feature refinement iteration 8
------------------------------

Marked for refinement due to explicit features             : 0 cells.
Determined cells to refine in = 0.5 s
Selected for feature refinement : 0 cells (out of 88824)
Stopping refining since too few cells selected.


Surface refinement iteration 0
------------------------------

Marked for refinement due to surface intersection          : 5691 cells.
Determined cells to refine in = 0.02 s
Selected for refinement : 6370 cells (out of 88824)
Edge intersection testing:
    Number of edges             : 448799
    Number of edges to retest   : 235195
    Number of intersected edges : 44647
Refined mesh in = 0.55 s
After refinement surface refinement iteration 0 : cells:133414  faces:448799  points:184935
Cells per refinement level:
    0	18705
    1	435
    2	749
    3	1324
    4	3734
    5	10172
    6	23371
    7	48588
    8	26336

Surface refinement iteration 1
------------------------------

Marked for refinement due to surface intersection          : 9574 cells.
Determined cells to refine in = 0.02 s
Selected for refinement : 10263 cells (out of 133414)
Edge intersection testing:
    Number of edges             : 680876
    Number of edges to retest   : 349427
    Number of intersected edges : 68809
Refined mesh in = 0.78 s
After refinement surface refinement iteration 1 : cells:205255  faces:680876  points:273101
Cells per refinement level:
    0	18687
    1	537
    2	1004
    3	1816
    4	4268
    5	13164
    6	38599
    7	100844
    8	26336

Surface refinement iteration 2
------------------------------

Marked for refinement due to surface intersection          : 12805 cells.
Determined cells to refine in = 0.03 s
Selected for refinement : 13858 cells (out of 205255)
Edge intersection testing:
    Number of edges             : 996155
    Number of edges to retest   : 443345
    Number of intersected edges : 98481
Refined mesh in = 1.13 s
After refinement surface refinement iteration 2 : cells:302261  faces:996155  points:394100
Cells per refinement level:
    0	18671
    1	617
    2	1285
    3	2326
    4	6055
    5	16237
    6	50490
    7	180244
    8	26336

Surface refinement iteration 3
------------------------------

Marked for refinement due to surface intersection          : 11614 cells.
Determined cells to refine in = 0.05 s
Selected for refinement : 12643 cells (out of 302261)
Edge intersection testing:
    Number of edges             : 1285223
    Number of edges to retest   : 404094
    Number of intersected edges : 123341
Refined mesh in = 1.31 s
After refinement surface refinement iteration 3 : cells:390762  faces:1285223  points:505986
Cells per refinement level:
    0	18655
    1	713
    2	1415
    3	2882
    4	8295
    5	24736
    6	62430
    7	245300
    8	26336

Surface refinement iteration 4
------------------------------

Marked for refinement due to surface intersection          : 13962 cells.
Determined cells to refine in = 0.06 s
Selected for refinement : 15289 cells (out of 390762)
Edge intersection testing:
    Number of edges             : 1636682
    Number of edges to retest   : 464067
    Number of intersected edges : 153681
Refined mesh in = 1.67 s
After refinement surface refinement iteration 4 : cells:497785  faces:1636682  points:643414
Cells per refinement level:
    0	18655
    1	713
    2	1383
    3	2634
    4	10372
    5	35043
    6	97629
    7	305020
    8	26336

Surface refinement iteration 5
------------------------------

Marked for refinement due to surface intersection          : 26008 cells.
Determined cells to refine in = 0.07 s
Selected for refinement : 28192 cells (out of 497785)
Edge intersection testing:
    Number of edges             : 2283782
    Number of edges to retest   : 846050
    Number of intersected edges : 209293
Refined mesh in = 2.36 s
After refinement surface refinement iteration 5 : cells:695129  faces:2283782  points:895783
Cells per refinement level:
    0	18655
    1	713
    2	1351
    3	2698
    4	9824
    5	44541
    6	136311
    7	454700
    8	26336

Surface refinement iteration 6
------------------------------

Marked for refinement due to surface intersection          : 28937 cells.
Determined cells to refine in = 0.1 s
Selected for refinement : 31172 cells (out of 695129)
Edge intersection testing:
    Number of edges             : 2999303
    Number of edges to retest   : 928723
    Number of intersected edges : 270668
Refined mesh in = 3 s
After refinement surface refinement iteration 6 : cells:913333  faces:2999303  points:1174855
Cells per refinement level:
    0	18655
    1	713
    2	1351
    3	2634
    4	9680
    5	42386
    6	172486
    7	639092
    8	26336

Surface refinement iteration 7
------------------------------

Marked for refinement due to surface intersection          : 23040 cells.
Determined cells to refine in = 0.11 s
Selected for refinement : 24538 cells (out of 913333)
Edge intersection testing:
    Number of edges             : 3563156
    Number of edges to retest   : 732468
    Number of intersected edges : 319648
Refined mesh in = 3.43 s
After refinement surface refinement iteration 7 : cells:1085099  faces:3563156  points:1395048
Cells per refinement level:
    0	18655
    1	713
    2	1351
    3	2634
    4	9679
    5	40897
    6	161422
    7	823412
    8	26336

Surface refinement iteration 8
------------------------------

Marked for refinement due to surface intersection          : 0 cells.
Determined cells to refine in = 0.1 s
Selected for refinement : 0 cells (out of 1085099)
Stopping refining since too few cells selected.


Removing mesh beyond surface intersections
------------------------------------------

Found point (0.001 0.1 0.001) in global region 0 out of 3 regions.
Keeping all cells in region 0 containing point (0.001 0.1 0.001)
Selected for keeping : 917634 cells.
Edge intersection testing:
    Number of edges             : 3081369
    Number of edges to retest   : 238400
    Number of intersected edges : 319648

Shell refinement iteration 0
----------------------------

Marked for refinement due to distance to explicit features : 0 cells.
Marked for refinement due to refinement shells             : 39842 cells.
Determined cells to refine in = 14.19 s
Selected for internal refinement : 43105 cells (out of 917634)
Edge intersection testing:
    Number of edges             : 3998895
    Number of edges to retest   : 1510194
    Number of intersected edges : 326947
Refined mesh in = 4.46 s
After refinement shell refinement iteration 0 : cells:1219369  faces:3998895  points:1562000
Cells per refinement level:
    0	18271
    1	3700
    2	1687
    3	4483
    4	11091
    5	43434
    6	132316
    7	958142
    8	46245

Shell refinement iteration 1
----------------------------

Marked for refinement due to distance to explicit features : 0 cells.
Marked for refinement due to refinement shells             : 81020 cells.
Determined cells to refine in = 0.73 s
Selected for internal refinement : 82014 cells (out of 1219369)
Edge intersection testing:
    Number of edges             : 5734953
    Number of edges to retest   : 2365174
    Number of intersected edges : 326947
Refined mesh in = 5.95 s
After refinement shell refinement iteration 1 : cells:1793467  faces:5734953  points:2149966
Cells per refinement level:
    0	18131
    1	2817
    2	17178
    3	7504
    4	14356
    5	81986
    6	194820
    7	1410430
    8	46245

Shell refinement iteration 2
----------------------------

Marked for refinement due to distance to explicit features : 0 cells.
Marked for refinement due to refinement shells             : 165646 cells.
Determined cells to refine in = 0.93 s
Selected for internal refinement : 169219 cells (out of 1793467)
Edge intersection testing:
    Number of edges             : 9315261
    Number of edges to retest   : 4547488
    Number of intersected edges : 326947
Refined mesh in = 9.36 s
After refinement shell refinement iteration 2 : cells:2978000  faces:9315261  points:3361383
Cells per refinement level:
    0	17875
    1	3564
    2	11868
    3	132033
    4	15684
    5	123569
    6	282460
    7	2344702
    8	46245

Shell refinement iteration 3
----------------------------

Marked for refinement due to distance to explicit features : 0 cells.
Marked for refinement due to refinement shells             : 211600 cells.
Determined cells to refine in = 1.38 s
Selected for internal refinement : 214180 cells (out of 2978000)
Edge intersection testing:
    Number of edges             : 13834068
    Number of edges to retest   : 5761029
    Number of intersected edges : 326947
Refined mesh in = 13.21 s
After refinement shell refinement iteration 3 : cells:4477260  faces:13834068  points:4881738
Cells per refinement level:
    0	17867
    1	3588
    2	10544
    3	143129
    4	26860
    5	140629
    6	303344
    7	3785054
    8	46245

Shell refinement iteration 4
----------------------------

Marked for refinement due to distance to explicit features : 0 cells.
Marked for refinement due to refinement shells             : 155480 cells.
Determined cells to refine in = 1.94 s
Selected for internal refinement : 158529 cells (out of 4477260)
Edge intersection testing:
    Number of edges             : 17182527
    Number of edges to retest   : 4309442
    Number of intersected edges : 326947
Refined mesh in = 15.63 s
After refinement shell refinement iteration 4 : cells:5586963  faces:17182527  points:6010871
Cells per refinement level:
    0	17867
    1	3588
    2	10532
    3	142474
    4	19466
    5	231347
    6	307462
    7	4807982
    8	46245

Shell refinement iteration 5
----------------------------

Marked for refinement due to distance to explicit features : 0 cells.
Marked for refinement due to refinement shells             : 47550 cells.
Determined cells to refine in = 2.34 s
Selected for internal refinement : 49370 cells (out of 5586963)
Edge intersection testing:
    Number of edges             : 18228735
    Number of edges to retest   : 1487791
    Number of intersected edges : 326947
Refined mesh in = 15.75 s
After refinement shell refinement iteration 5 : cells:5932553  faces:18228735  points:6365938
Cells per refinement level:
    0	17867
    1	3588
    2	10524
    3	142380
    4	19712
    5	221187
    6	424012
    7	5047038
    8	46245

Shell refinement iteration 6
----------------------------

Marked for refinement due to distance to explicit features : 0 cells.
Marked for refinement due to refinement shells             : 2264 cells.
Determined cells to refine in = 2.62 s
Selected for internal refinement : 2344 cells (out of 5932553)
Edge intersection testing:
    Number of edges             : 18278394
    Number of edges to retest   : 115653
    Number of intersected edges : 326947
Refined mesh in = 14.95 s
After refinement shell refinement iteration 6 : cells:5948961  faces:18278394  points:6382782
Cells per refinement level:
    0	17867
    1	3588
    2	10524
    3	142380
    4	19704
    5	221179
    6	422324
    7	5065150
    8	46245

Shell refinement iteration 7
----------------------------

Marked for refinement due to distance to explicit features : 0 cells.
Marked for refinement due to refinement shells             : 56 cells.
Determined cells to refine in = 2.48 s
Selected for internal refinement : 56 cells (out of 5948961)
Edge intersection testing:
    Number of edges             : 18279582
    Number of edges to retest   : 4504
    Number of intersected edges : 326947
Refined mesh in = 14.72 s
After refinement shell refinement iteration 7 : cells:5949353  faces:18279582  points:6383186
Cells per refinement level:
    0	17867
    1	3588
    2	10524
    3	142380
    4	19704
    5	221179
    6	422268
    7	5065598
    8	46245

Shell refinement iteration 8
----------------------------

Marked for refinement due to distance to explicit features : 0 cells.
Marked for refinement due to refinement shells             : 0 cells.
Determined cells to refine in = 2.46 s
Selected for internal refinement : 0 cells (out of 5949353)
Stopping refining since too few cells selected.


Dangling coarse cells refinement iteration 0
--------------------------------------------

Determined cells to refine in = 0.15 s
Selected for refinement : 3 cells (out of 5949353)
Edge intersection testing:
    Number of edges             : 18279627
    Number of edges to retest   : 381
    Number of intersected edges : 326947
Refined mesh in = 14.26 s
After refinement coarse cell refinement iteration 0 : cells:5949374  faces:18279627  points:6383192
Cells per refinement level:
    0	17867
    1	3588
    2	10524
    3	142380
    4	19704
    5	221179
    6	422268
    7	5065595
    8	46269

Dangling coarse cells refinement iteration 1
--------------------------------------------

Determined cells to refine in = 0.17 s
Selected for refinement : 0 cells (out of 5949374)
Stopping refining since too few cells selected.


Dangling coarse cells refinement iteration 0
--------------------------------------------

Determined cells to refine in = 0.13 s
Selected for refinement : 0 cells (out of 5949374)
Stopping refining since too few cells selected.


Splitting mesh at surface intersections
---------------------------------------

Introducing baffles for 326947 faces that are intersected by the surface.

Edge intersection testing:
    Number of edges             : 18606574
    Number of edges to retest   : 1973732
    Number of intersected edges : 651035
Created baffles in = 11.6 s


After introducing baffles : cells:5949374  faces:18606574  points:6383192
Cells per refinement level:
    0	17867
    1	3588
    2	10524
    3	142380
    4	19704
    5	221179
    6	422268
    7	5065595
    8	46269

Introducing baffles to block off problem cells
----------------------------------------------

markFacesOnProblemCells : marked 561666 additional internal faces to be converted into baffles.
Analyzed problem cells in = 10.88 s


Introducing baffles to delete problem cells.

Edge intersection testing:
    Number of edges             : 19168240
    Number of edges to retest   : 1700828
    Number of intersected edges : 651173
Created baffles in = 12.61 s


After introducing baffles : cells:5949374  faces:19168240  points:6383192
Cells per refinement level:
    0	17867
    1	3588
    2	10524
    3	142380
    4	19704
    5	221179
    6	422268
    7	5065595
    8	46269

Remove unreachable sections of mesh
-----------------------------------

Keeping all cells in region 0 containing point (0.001 0.1 0.001)
Selected for keeping : 5650666 cells.
Edge intersection testing:
    Number of edges             : 17397435
    Number of edges to retest   : 0
    Number of intersected edges : 323411
Split mesh in = 87.61 s


After subsetting : cells:5650666  faces:17397435  points:6095672
Cells per refinement level:
    0	17867
    1	3588
    2	10524
    3	142380
    4	19704
    5	221179
    6	416345
    7	4792352
    8	26727

Handling cells with snap problems
---------------------------------

Introducing baffles for 323411 faces that are intersected by the surface.

Edge intersection testing:
    Number of edges             : 17397435
    Number of edges to retest   : 1019738
    Number of intersected edges : 323411
Created baffles in = 8.42 s


After introducing baffles : cells:5650666  faces:17397435  points:6095672
Cells per refinement level:
    0	17867
    1	3588
    2	10524
    3	142380
    4	19704
    5	221179
    6	416345
    7	4792352
    8	26727

Introducing baffles to block off problem cells
----------------------------------------------

markFacesOnProblemCells : marked 0 additional internal faces to be converted into baffles.
Analyzed problem cells in = 9.4 s


Introducing baffles to delete problem cells.

Edge intersection testing:
    Number of edges             : 17397435
    Number of edges to retest   : 0
    Number of intersected edges : 323411
Created baffles in = 7.77 s


After introducing baffles : cells:5650666  faces:17397435  points:6095672
Cells per refinement level:
    0	17867
    1	3588
    2	10524
    3	142380
    4	19704
    5	221179
    6	416345
    7	4792352
    8	26727

Remove unreachable sections of mesh
-----------------------------------

