/*---------------------------------------------------------------------------*\
  =========                 |
  \\      /  F ield         | OpenFOAM: The Open Source CFD Toolbox
   \\    /   O peration     | Website:  https://openfoam.org
    \\  /    A nd           | Version:  7
     \\/     M anipulation  |
\*---------------------------------------------------------------------------*/
Build  : 7-3bcbaf946ae9
Exec   : snappyHexMesh
Date   : Feb 18 2021
Time   : 22:21:15
Host   : "omarkahol"
PID    : 3117
I/O    : uncollated
Case   : /home/omarkahol/SKYWARD/HERMESV1/meshSnappy
nProcs : 1
sigFpe : Enabling floating point exception trapping (FOAM_SIGFPE).
fileModificationChecking : Monitoring run-time modified files using timeStampMaster (fileModificationSkew 10)
allowSystemOperations : Allowing user-supplied system call operations

// * * * * * * * * * * * * * * * * * * * * * * * * * * * * * * * * * * * * * //
Create time

Create mesh for time = 0

Read mesh in = 0.03 s

Overall mesh bounding box  : (-3 -1.99592 -1.99975) (8 1.99591 1.99484)
Relative tolerance         : 1e-06
Absolute matching distance : 1.23649e-05

Reading refinement surfaces.
Read refinement surfaces in = 0.05 s

Reading refinement shells.
Refinement level 3 for all cells inside wake_coarse
Refinement level 5 for all cells inside ogive
Refinement level 7 for all cells inside winglet
Refinement level 7 for all cells inside wake_near_1
Refinement level 6 for all cells inside wake_near_2
Refinement level 5 for all cells inside wake_near_3
Read refinement shells in = 0 s

Setting refinement level of surface to be consistent with shells.
Checked shell refinement in = 0 s

Reading features.
Read edgeMesh rocket.eMesh
    points      : 225
    edges       : 273
    boundingBox : (-1 -0.115 -0.115) (1.02 0.115 0.115)

Refinement level according to distance to "rocket.eMesh" (225 points, 273 edges).
    level 8 for all cells within 0 metre.
Read features in = 0 s


Determining initial surface intersections
-----------------------------------------

Edge intersection testing:
    Number of edges             : 20016
    Number of edges to retest   : 20016
    Number of intersected edges : 0
Calculated surface intersections in = 0.06 s

Initial mesh : cells:6388  faces:20016  points:7259
Cells per refinement level:
    0	6388

Adding patches for surface regions
----------------------------------

Patch Type                Region                        
----- ----                ------                        
rocket:

3     wall                rocket                        

Added patches in = 0 s

 Foam::decompositionMethod::New 
{
    method          none;
    numberOfSubdomains 1;
}

Selecting decompositionMethod none
Layer thickness specified as first layer and overall thickness.

Refinement phase
----------------

Found point (0.001 0.1 0.001) in cell 4555 on processor 0

Feature refinement iteration 0
------------------------------

Marked for refinement due to explicit features             : 11 cells.
Determined cells to refine in = 0.06 s
Selected for feature refinement : 11 cells (out of 6388)
Edge intersection testing:
    Number of edges             : 20304
    Number of edges to retest   : 494
    Number of intersected edges : 4
Refined mesh in = 0.02 s
After refinement feature refinement iteration 0 : cells:6465  faces:20304  points:7404
Cells per refinement level:
    0	6377
    1	88

Feature refinement iteration 1
------------------------------

Marked for refinement due to explicit features             : 11 cells.
Determined cells to refine in = 0.06 s
Selected for feature refinement : 15 cells (out of 6465)
Edge intersection testing:
    Number of edges             : 20691
    Number of edges to retest   : 672
    Number of intersected edges : 12
Refined mesh in = 0.02 s
After refinement feature refinement iteration 1 : cells:6570  faces:20691  points:7593
Cells per refinement level:
    0	6373
    1	109
    2	88

Feature refinement iteration 2
------------------------------

Marked for refinement due to explicit features             : 39 cells.
Determined cells to refine in = 0.05 s
Selected for feature refinement : 87 cells (out of 6570)
Edge intersection testing:
    Number of edges             : 22794
    Number of edges to retest   : 3062
    Number of intersected edges : 84
Refined mesh in = 0.02 s
After refinement feature refinement iteration 2 : cells:7179  faces:22794  points:8506
Cells per refinement level:
    0	6349
    1	277
    2	241
    3	312

Feature refinement iteration 3
------------------------------

Marked for refinement due to explicit features             : 98 cells.
Determined cells to refine in = 0.06 s
Selected for feature refinement : 127 cells (out of 7179)
Edge intersection testing:
    Number of edges             : 25923
    Number of edges to retest   : 4709
    Number of intersected edges : 269
Refined mesh in = 0.02 s
After refinement feature refinement iteration 3 : cells:8068  faces:25923  points:9886
Cells per refinement level:
    0	6348
    1	281
    2	249
    3	406
    4	784

Feature refinement iteration 4
------------------------------

Marked for refinement due to explicit features             : 217 cells.
Determined cells to refine in = 0.06 s
Selected for feature refinement : 296 cells (out of 8068)
Edge intersection testing:
    Number of edges             : 33135
    Number of edges to retest   : 10540
    Number of intersected edges : 773
Refined mesh in = 0.04 s
After refinement feature refinement iteration 4 : cells:10140  faces:33135  points:13054
Cells per refinement level:
    0	6344
    1	308
    2	273
    3	480
    4	999
    5	1736

Feature refinement iteration 5
------------------------------

Marked for refinement due to explicit features             : 448 cells.
Determined cells to refine in = 0.15 s
Selected for feature refinement : 641 cells (out of 10140)
Edge intersection testing:
    Number of edges             : 48759
    Number of edges to retest   : 23660
    Number of intersected edges : 2748
Refined mesh in = 0.1 s
After refinement feature refinement iteration 5 : cells:14627  faces:48759  points:19869
Cells per refinement level:
    0	6344
    1	300
    2	320
    3	593
    4	1038
    5	2448
    6	3584

Feature refinement iteration 6
------------------------------

Marked for refinement due to explicit features             : 926 cells.
Determined cells to refine in = 0.17 s
Selected for feature refinement : 1273 cells (out of 14627)
Edge intersection testing:
    Number of edges             : 79950
    Number of edges to retest   : 47093
    Number of intersected edges : 8402
Refined mesh in = 0.12 s
After refinement feature refinement iteration 6 : cells:23538  faces:79950  points:33628
Cells per refinement level:
    0	6344
    1	300
    2	320
    3	580
    4	1088
    5	2600
    6	4898
    7	7408

Feature refinement iteration 7
------------------------------

Marked for refinement due to explicit features             : 2058 cells.
Determined cells to refine in = 0.25 s
Selected for feature refinement : 3781 cells (out of 23538)
Edge intersection testing:
    Number of edges             : 175065
    Number of edges to retest   : 139028
    Number of intersected edges : 20919
Refined mesh in = 0.33 s
After refinement feature refinement iteration 7 : cells:50005  faces:175065  points:77066
Cells per refinement level:
    0	6340
    1	328
    2	336
    3	651
    4	1407
    5	3325
    6	6732
    7	14422
    8	16464

Feature refinement iteration 8
------------------------------

Marked for refinement due to explicit features             : 0 cells.
Determined cells to refine in = 0.67 s
Selected for feature refinement : 0 cells (out of 50005)
Stopping refining since too few cells selected.


Surface refinement iteration 0
------------------------------

Marked for refinement due to surface intersection          : 148 cells.
Marked for refinement due to curvature/regions             : 741 cells.
Determined cells to refine in = 0.05 s
Selected for refinement : 932 cells (out of 50005)
Edge intersection testing:
    Number of edges             : 195801
    Number of edges to retest   : 43931
    Number of intersected edges : 23607
Refined mesh in = 0.28 s
After refinement surface refinement iteration 0 : cells:56529  faces:195801  points:84721
Cells per refinement level:
    0	6338
    1	334
    2	406
    3	697
    4	1552
    5	4067
    6	8449
    7	18222
    8	16464

Surface refinement iteration 1
------------------------------

Marked for refinement due to surface intersection          : 188 cells.
Marked for refinement due to curvature/regions             : 840 cells.
Determined cells to refine in = 0.05 s
Selected for refinement : 1098 cells (out of 56529)
Edge intersection testing:
    Number of edges             : 220557
    Number of edges to retest   : 41087
    Number of intersected edges : 26802
Refined mesh in = 0.3 s
After refinement surface refinement iteration 1 : cells:64215  faces:220557  points:94033
Cells per refinement level:
    0	6328
    1	398
    2	494
    3	949
    4	1972
    5	4987
    6	8257
    7	24366
    8	16464

Surface refinement iteration 2
------------------------------

Marked for refinement due to surface intersection          : 300 cells.
Marked for refinement due to curvature/regions             : 192 cells.
Determined cells to refine in = 0.06 s
Selected for refinement : 572 cells (out of 64215)
Edge intersection testing:
    Number of edges             : 233505
    Number of edges to retest   : 21424
    Number of intersected edges : 27968
Refined mesh in = 0.27 s
After refinement surface refinement iteration 2 : cells:68219  faces:233505  points:98949
Cells per refinement level:
    0	6312
    1	502
    2	638
    3	1229
    4	2616
    5	6491
    6	8065
    7	25902
    8	16464

Surface refinement iteration 3
------------------------------

Marked for refinement due to surface intersection          : 550 cells.
Marked for refinement due to curvature/regions             : 0 cells.
Determined cells to refine in = 0.05 s
Selected for refinement : 640 cells (out of 68219)
Edge intersection testing:
    Number of edges             : 248079
    Number of edges to retest   : 20384
    Number of intersected edges : 29234
Refined mesh in = 0.31 s
After refinement surface refinement iteration 3 : cells:72699  faces:248079  points:104574
Cells per refinement level:
    0	6308
    1	510
    2	782
    3	1487
    4	3186
    5	9995
    6	8065
    7	25902
    8	16464

Surface refinement iteration 4
------------------------------

Marked for refinement due to surface intersection          : 560 cells.
Marked for refinement due to curvature/regions             : 0 cells.
Determined cells to refine in = 0.06 s
Selected for refinement : 664 cells (out of 72699)
Edge intersection testing:
    Number of edges             : 263139
    Number of edges to retest   : 21276
    Number of intersected edges : 30514
Refined mesh in = 0.3 s
After refinement surface refinement iteration 4 : cells:77347  faces:263139  points:110348
Cells per refinement level:
    0	6292
    1	614
    2	926
    3	1743
    4	3762
    5	13579
    6	8065
    7	25902
    8	16464

Surface refinement iteration 5
------------------------------

Marked for refinement due to surface intersection          : 560 cells.
Marked for refinement due to curvature/regions             : 0 cells.
Determined cells to refine in = 0.06 s
Selected for refinement : 640 cells (out of 77347)
Edge intersection testing:
    Number of edges             : 277647
    Number of edges to retest   : 20144
    Number of intersected edges : 31770
Refined mesh in = 0.34 s
After refinement surface refinement iteration 5 : cells:81827  faces:277647  points:115904
Cells per refinement level:
    0	6292
    1	598
    2	1006
    3	1999
    4	4338
    5	17163
    6	8065
    7	25902
    8	16464

Surface refinement iteration 6
------------------------------

Marked for refinement due to surface intersection          : 544 cells.
Marked for refinement due to curvature/regions             : 0 cells.
Determined cells to refine in = 0.06 s
Selected for refinement : 632 cells (out of 81827)
Edge intersection testing:
    Number of edges             : 291855
    Number of edges to retest   : 19880
    Number of intersected edges : 32986
Refined mesh in = 0.36 s
After refinement surface refinement iteration 6 : cells:86251  faces:291855  points:121252
Cells per refinement level:
    0	6284
    1	646
    2	1102
    3	2127
    4	4914
    5	20747
    6	8065
    7	25902
    8	16464

Surface refinement iteration 7
------------------------------

Marked for refinement due to surface intersection          : 448 cells.
Marked for refinement due to curvature/regions             : 0 cells.
Determined cells to refine in = 0.06 s
Selected for refinement : 480 cells (out of 86251)
Edge intersection testing:
    Number of edges             : 302607
    Number of edges to retest   : 14796
    Number of intersected edges : 33978
Refined mesh in = 0.36 s
After refinement surface refinement iteration 7 : cells:89611  faces:302607  points:125268
Cells per refinement level:
    0	6284
    1	646
    2	1102
    3	2095
    4	4722
    5	24331
    6	8065
    7	25902
    8	16464

Surface refinement iteration 8
------------------------------

Marked for refinement due to surface intersection          : 0 cells.
Marked for refinement due to curvature/regions             : 0 cells.
Determined cells to refine in = 0.07 s
Selected for refinement : 0 cells (out of 89611)
Stopping refining since too few cells selected.


Removing mesh beyond surface intersections
------------------------------------------

Found point (0.001 0.1 0.001) in global region 0 out of 2 regions.
Keeping all cells in region 0 containing point (0.001 0.1 0.001)
Selected for keeping : 84246 cells.
Edge intersection testing:
    Number of edges             : 289045
    Number of edges to retest   : 8558
    Number of intersected edges : 33978

Shell refinement iteration 0
----------------------------

Marked for refinement due to distance to explicit features : 0 cells.
Marked for refinement due to refinement shells             : 14709 cells.
Determined cells to refine in = 2.12 s
Selected for internal refinement : 17211 cells (out of 84246)
Edge intersection testing:
    Number of edges             : 664108
    Number of edges to retest   : 568326
    Number of intersected edges : 40118
Refined mesh in = 1.22 s
After refinement shell refinement iteration 0 : cells:204723  faces:664108  points:255918
Cells per refinement level:
    0	6176
    1	1248
    2	2096
    3	10156
    4	8397
    5	33117
    6	26181
    7	82162
    8	35190

Shell refinement iteration 1
----------------------------

Marked for refinement due to distance to explicit features : 0 cells.
Marked for refinement due to refinement shells             : 41297 cells.
Determined cells to refine in = 0.23 s
Selected for internal refinement : 42466 cells (out of 204723)
Edge intersection testing:
    Number of edges             : 1572289
    Number of edges to retest   : 1195342
    Number of intersected edges : 45346
Refined mesh in = 2.55 s
After refinement shell refinement iteration 1 : cells:501985  faces:1572289  points:569492
Cells per refinement level:
    0	5952
    1	2129
    2	7800
    3	21976
    4	9944
    5	67347
    6	63853
    7	287794
    8	35190

Shell refinement iteration 2
----------------------------

Marked for refinement due to distance to explicit features : 0 cells.
Marked for refinement due to refinement shells             : 76351 cells.
Determined cells to refine in = 0.28 s
Selected for internal refinement : 78392 cells (out of 501985)
Edge intersection testing:
    Number of edges             : 3234031
    Number of edges to retest   : 2144401
    Number of intersected edges : 45346
Refined mesh in = 5.51 s
After refinement shell refinement iteration 2 : cells:1050729  faces:3234031  points:1133889
Cells per refinement level:
    0	5860
    1	2146
    2	7519
    3	69574
    4	11862
    5	86183
    6	72377
    7	760018
    8	35190

Shell refinement iteration 3
----------------------------

Marked for refinement due to distance to explicit features : 0 cells.
Marked for refinement due to refinement shells             : 61823 cells.
Determined cells to refine in = 0.61 s
Selected for internal refinement : 63783 cells (out of 1050729)
Edge intersection testing:
    Number of edges             : 4584421
    Number of edges to retest   : 1811928
    Number of intersected edges : 45346
Refined mesh in = 6.34 s
After refinement shell refinement iteration 3 : cells:1497210  faces:4584421  points:1591405
Cells per refinement level:
    0	5860
    1	2146
    2	5594
    3	83484
    4	20310
    5	106329
    6	84151
    7	1154146
    8	35190

Shell refinement iteration 4
----------------------------

Marked for refinement due to distance to explicit features : 0 cells.
Marked for refinement due to refinement shells             : 30134 cells.
Determined cells to refine in = 0.78 s
Selected for internal refinement : 31070 cells (out of 1497210)
Edge intersection testing:
    Number of edges             : 5246803
    Number of edges to retest   : 903616
    Number of intersected edges : 45346
Refined mesh in = 6.59 s
After refinement shell refinement iteration 4 : cells:1714700  faces:5246803  points:1818888
Cells per refinement level:
    0	5860
    1	2146
    2	5594
    3	82848
    4	15628
    5	176713
    6	133471
    7	1257250
    8	35190

Shell refinement iteration 5
----------------------------

Marked for refinement due to distance to explicit features : 0 cells.
Marked for refinement due to refinement shells             : 480 cells.
Determined cells to refine in = 0.88 s
Selected for internal refinement : 498 cells (out of 1714700)
Edge intersection testing:
    Number of edges             : 5257261
    Number of edges to retest   : 35498
    Number of intersected edges : 45346
Refined mesh in = 6.26 s
After refinement shell refinement iteration 5 : cells:1718186  faces:5257261  points:1822374
Cells per refinement level:
    0	5860
    1	2146
    2	5594
    3	82840
    4	15308
    5	179775
    6	133455
    7	1258018
    8	35190

Shell refinement iteration 6
----------------------------

Marked for refinement due to distance to explicit features : 0 cells.
Marked for refinement due to refinement shells             : 0 cells.
Determined cells to refine in = 0.94 s
Selected for internal refinement : 0 cells (out of 1718186)
Stopping refining since too few cells selected.


Dangling coarse cells refinement iteration 0
--------------------------------------------

Determined cells to refine in = 0.05 s
Selected for refinement : 0 cells (out of 1718186)
Stopping refining since too few cells selected.


Dangling coarse cells refinement iteration 0
--------------------------------------------

Determined cells to refine in = 0.06 s
Selected for refinement : 0 cells (out of 1718186)
Stopping refining since too few cells selected.


Splitting mesh at surface intersections
---------------------------------------

Introducing baffles for 45346 faces that are intersected by the surface.

Edge intersection testing:
    Number of edges             : 5302607
    Number of edges to retest   : 287488
    Number of intersected edges : 88694
Created baffles in = 5.78 s


After introducing baffles : cells:1718186  faces:5302607  points:1822374
Cells per refinement level:
    0	5860
    1	2146
    2	5594
    3	82840
    4	15308
    5	179775
    6	133455
    7	1258018
    8	35190

Introducing baffles to block off problem cells
----------------------------------------------

markFacesOnProblemCells : marked 13887 additional internal faces to be converted into baffles.
Analyzed problem cells in = 4.18 s


Introducing baffles to delete problem cells.

Edge intersection testing:
    Number of edges             : 5316494
    Number of edges to retest   : 47438
    Number of intersected edges : 88694
Created baffles in = 5.23 s


After introducing baffles : cells:1718186  faces:5316494  points:1822374
Cells per refinement level:
    0	5860
    1	2146
    2	5594
    3	82840
    4	15308
    5	179775
    6	133455
    7	1258018
    8	35190

Remove unreachable sections of mesh
-----------------------------------

Keeping all cells in region 0 containing point (0.001 0.1 0.001)
Selected for keeping : 1644378 cells.
Edge intersection testing:
    Number of edges             : 5043574
    Number of edges to retest   : 0
    Number of intersected edges : 44596
Split mesh in = 40.58 s


After subsetting : cells:1644378  faces:5043574  points:1756188
Cells per refinement level:
    0	5860
    1	2146
    2	5594
    3	82840
    4	15308
    5	173089
    6	132962
    7	1207449
    8	19130

Handling cells with snap problems
---------------------------------

Introducing baffles for 44596 faces that are intersected by the surface.

Edge intersection testing:
    Number of edges             : 5043574
    Number of edges to retest   : 150548
    Number of intersected edges : 44596
Created baffles in = 3.92 s


After introducing baffles : cells:1644378  faces:5043574  points:1756188
Cells per refinement level:
    0	5860
    1	2146
    2	5594
    3	82840
    4	15308
    5	173089
    6	132962
    7	1207449
    8	19130

Introducing baffles to block off problem cells
----------------------------------------------

markFacesOnProblemCells : marked 0 additional internal faces to be converted into baffles.
Analyzed problem cells in = 3.65 s


Introducing baffles to delete problem cells.

Edge intersection testing:
    Number of edges             : 5043574
    Number of edges to retest   : 0
    Number of intersected edges : 44596
Created baffles in = 3.97 s


After introducing baffles : cells:1644378  faces:5043574  points:1756188
Cells per refinement level:
    0	5860
    1	2146
    2	5594
    3	82840
    4	15308
    5	173089
    6	132962
    7	1207449
    8	19130

Remove unreachable sections of mesh
-----------------------------------

Keeping all cells in region 0 containing point (0.001 0.1 0.001)
Selected for keeping : 1644378 cells.
Edge intersection testing:
    Number of edges             : 5043574
    Number of edges to retest   : 0
    Number of intersected edges : 44596
Split mesh in = 34.27 s


After subsetting : cells:1644378  faces:5043574  points:1756188
Cells per refinement level:
    0	5860
    1	2146
    2	5594
    3	82840
    4	15308
    5	173089
    6	132962
    7	1207449
    8	19130

Merge free-standing baffles
---------------------------

freeStandingBaffles : detected 298 free-standing baffles out of 298

freeStandingBaffles : detected 113 planar (within 90 degrees) free-standing baffles out of 298

Detected free-standing baffles : 113
Edge intersection testing:
    Number of edges             : 5043461
    Number of edges to retest   : 113
    Number of intersected edges : 44483

Introducing baffles to block off problem cells
----------------------------------------------

markFacesOnProblemCells : marked 0 additional internal faces to be converted into baffles.
Analyzed problem cells in = 9.87 s


Introducing baffles to delete problem cells.

Edge intersection testing:
    Number of edges             : 5043461
    Number of edges to retest   : 0
    Number of intersected edges : 44483
Created baffles in = 4.66 s


After introducing baffles : cells:1644378  faces:5043461  points:1756188
Cells per refinement level:
    0	5860
    1	2146
    2	5594
    3	82840
    4	15308
    5	173089
    6	132962
    7	1207449
    8	19130
Merged free-standing baffles in = 0.02 s


dupNonManifoldPoints : Found : 180 non-manifold points (out of 1756188)
Edge intersection testing:
    Number of edges             : 5043461
    Number of edges to retest   : 0
    Number of intersected edges : 44483
Detected unsplittable baffles : 0

Merge refined boundary faces
----------------------------

Merging 658 sets of faces.

Edge intersection testing:
    Number of edges             : 5042799
    Number of edges to retest   : 4579
    Number of intersected edges : 43821

Undo iteration 0
----------------
Checking faces in error :
    faces with interpolation weights (0..1)  < 0           : 0
    faces with volume ratio of neighbour cells < 0         : 0

Merging all points on surface that
- are used by only two boundary faces and
- make an angle with a cosine of more than 0.707107.

Removing 606 straight edge points ...

Edge intersection testing:
    Number of edges             : 5042799
    Number of edges to retest   : 4212
    Number of intersected edges : 43821

Undo iteration 0
----------------
Checking faces in error :
    faces with interpolation weights (0..1)  < 0           : 0
    faces with volume ratio of neighbour cells < 0         : 0
Refined mesh : cells:1644378  faces:5042799  points:1755760
Cells per refinement level:
    0	5860
    1	2146
    2	5594
    3	82840
    4	15308
    5	173089
    6	132962
    7	1207449
    8	19130
Writing mesh to time 1
Wrote mesh in = 28.68 s.
Mesh refined in = 184.47 s.

Morphing phase
--------------


Snapping to features in 5 iterations ...
Constructing mesh displacer ...
Using mesh parameters 
{
    maxNonOrtho     180;
    maxBoundarySkewness -1;
    maxInternalSkewness -1;
    maxConcave      180;
    minVol          -1e+30;
    minTetQuality   -1e+30;
    minArea         -1;
    minTwist        -2;
    minDeterminant  -1;
    minFaceWeight   0;
    minVolRatio     0;
    minTriangleTwist -1;
    nSmoothScale    100;
    errorReduction  0.75;
}


Checking initial mesh ...
Checking faces in error :
    faces with interpolation weights (0..1)  < 0           : 0
    faces with volume ratio of neighbour cells < 0         : 0
Detected 0 illegal faces (concave, zero area or negative cell pyramid volume)
Checked initial mesh in = 1.69 s


Smoothing patch points ...
Smoothing iteration 0
Found 360 non-manifold point(s).

Scaling iteration 0
Moving mesh using displacement scaling : min:1  max:1
Checking faces in error :
    faces with interpolation weights (0..1)  < 0           : 0
    faces with volume ratio of neighbour cells < 0         : 0
Successfully moved mesh

Smoothing iteration 1
Found 0 non-manifold point(s).

Scaling iteration 0
Moving mesh using displacement scaling : min:1  max:1
Checking faces in error :
    faces with interpolation weights (0..1)  < 0           : 0
    faces with volume ratio of neighbour cells < 0         : 0
Successfully moved mesh

Smoothing iteration 2
Found 0 non-manifold point(s).

Scaling iteration 0
Moving mesh using displacement scaling : min:1  max:1
Checking faces in error :
    faces with interpolation weights (0..1)  < 0           : 0
    faces with volume ratio of neighbour cells < 0         : 0
Successfully moved mesh

Patch points smoothed in = 11.1 s



Morph iteration 0
-----------------
Calculating patchDisplacement as distance to nearest surface point ...
Wanted displacement : average:0.000506453 min:2.54552e-08 max:0.00347598
Calculated surface displacement in = 0.06 s


Detecting near surfaces ...
Overriding nearest with intersection of close gaps at 0 out of 45941 points.
Overriding displacement on features :
   implicit features    : false
   explicit features    : true
   multi-patch features : false

Detected 20 baffle edges out of 90695 edges.
Initially selected 546 points out of 45941 for reverse attraction.
Selected 1708 points out of 45941 for reverse attraction.
Stringing feature edges : changed 26 points
Stringing feature edges : changed 0 points
Attraction:
     linear   : max:(0.000812453 -0.00155326 0.00300163) avg:(-3.58284e-05 -9.52118e-07 3.48243e-05)
     feature  : max:(0.000385167 0.000511604 -0.00063178) avg:(2.6231e-06 -1.50239e-07 3.44233e-08)
Feature analysis : total master points:45941 attraction to :
    feature point   : 0
    feature edge    : 542
    nearest surface : 0
    rest            : 45399

--> FOAM Warning : Displacement (-2.28906e-14 -2.90417e-05 -3.43775e-05) at mesh point 7881 coord (1 -0.000520454 -0.114286) points through the surrounding patch faces
Smoothing displacement ...
Iteration 0
Iteration 10
Iteration 20
Iteration 30
Iteration 40
Iteration 50
Iteration 60
Iteration 70
Iteration 80
Iteration 90
Iteration 100
Iteration 110
Iteration 120
Iteration 130
Iteration 140
Iteration 150
Iteration 160
Iteration 170
Iteration 180
Displacement smoothed in = 53.81 s


Moving mesh ...

Iteration 0
Moving mesh using displacement scaling : min:1  max:1
Checking faces in error :
    faces with interpolation weights (0..1)  < 0           : 0
    faces with volume ratio of neighbour cells < 0         : 0
Successfully moved mesh
Moved mesh in = 3.31 s



Morph iteration 1
-----------------
Calculating patchDisplacement as distance to nearest surface point ...
Wanted displacement : average:0.000442658 min:5.1435e-10 max:0.00322803
Calculated surface displacement in = 0.07 s


Detecting near surfaces ...
Overriding nearest with intersection of close gaps at 0 out of 45941 points.
Overriding displacement on features :
   implicit features    : false
   explicit features    : true
   multi-patch features : false

Detected 20 baffle edges out of 90695 edges.
Initially selected 546 points out of 45941 for reverse attraction.
Selected 1704 points out of 45941 for reverse attraction.
Stringing feature edges : changed 18 points
Stringing feature edges : changed 0 points
Attraction:
     linear   : max:(0.000754499 -0.00144246 0.00278752) avg:(-2.94478e-05 -9.06635e-07 2.65248e-05)
     feature  : max:(-0.000725262 2.93684e-05 0.000452388) avg:(2.43693e-06 -1.54325e-07 -7.86044e-08)
Feature analysis : total master points:45941 attraction to :
    feature point   : 0
    feature edge    : 542
    nearest surface : 0
    rest            : 45399

--> FOAM Warning : Displacement (4.43507e-12 -3.5992e-05 -5.47329e-05) at mesh point 7881 coord (1 -0.000549495 -0.11432) points through the surrounding patch faces
Smoothing displacement ...
Iteration 0
Iteration 10
Iteration 20
Iteration 30
Iteration 40
Iteration 50
Iteration 60
Iteration 70
Iteration 80
Iteration 90
Iteration 100
Iteration 110
Iteration 120
Iteration 130
Iteration 140
Iteration 150
Iteration 160
Iteration 170
Iteration 180
Displacement smoothed in = 50.71 s


Moving mesh ...

Iteration 0
Moving mesh using displacement scaling : min:1  max:1
Checking faces in error :
    faces with interpolation weights (0..1)  < 0           : 0
    faces with volume ratio of neighbour cells < 0         : 0
Successfully moved mesh
Moved mesh in = 3.49 s



Morph iteration 2
-----------------
Calculating patchDisplacement as distance to nearest surface point ...
Wanted displacement : average:0.000320599 min:1.04687e-08 max:0.00256857
Calculated surface displacement in = 0.06 s


Detecting near surfaces ...
Overriding nearest with intersection of close gaps at 0 out of 45941 points.
Overriding displacement on features :
   implicit features    : false
   explicit features    : true
   multi-patch features : false

Detected 20 baffle edges out of 90695 edges.
Initially selected 543 points out of 45941 for reverse attraction.
Selected 1691 points out of 45941 for reverse attraction.
Stringing feature edges : changed 13 points
Stringing feature edges : changed 0 points
Attraction:
     linear   : max:(0.000600359 -0.00114777 0.00221804) avg:(-1.8782e-05 -7.23396e-07 1.42335e-05)
     feature  : max:(-0.000243525 9.32595e-05 -0.000893267) avg:(1.89408e-06 -1.46272e-07 -7.88093e-08)
Feature analysis : total master points:45941 attraction to :
    feature point   : 0
    feature edge    : 540
    nearest surface : 0
    rest            : 45401

--> FOAM Warning : Displacement (-1.71894e-12 -8.33528e-06 -4.20584e-05) at mesh point 7881 coord (1 -0.000585487 -0.114375) points through the surrounding patch faces
Smoothing displacement ...
Iteration 0
Iteration 10
Iteration 20
Iteration 30
Iteration 40
Iteration 50
Iteration 60
Iteration 70
Iteration 80
Iteration 90
Iteration 100
Iteration 110
Iteration 120
Iteration 130
Iteration 140
Iteration 150
Iteration 160
Iteration 170
Iteration 180
Displacement smoothed in = 44.38 s


Moving mesh ...

Iteration 0
Moving mesh using displacement scaling : min:1  max:1
Checking faces in error :
    faces with interpolation weights (0..1)  < 0           : 0
    faces with volume ratio of neighbour cells < 0         : 0
Successfully moved mesh
Moved mesh in = 3.52 s



Morph iteration 3
-----------------
Calculating patchDisplacement as distance to nearest surface point ...
Wanted displacement : average:0.000175601 min:4.9037e-09 max:0.00154102
Calculated surface displacement in = 0.07 s


Detecting near surfaces ...
Overriding nearest with intersection of close gaps at 0 out of 45941 points.
Overriding displacement on features :
   implicit features    : false
   explicit features    : true
   multi-patch features : false

Detected 20 baffle edges out of 90695 edges.
Initially selected 540 points out of 45941 for reverse attraction.
Selected 1677 points out of 45941 for reverse attraction.
Stringing feature edges : changed 6 points
Stringing feature edges : changed 0 points
Attraction:
     linear   : max:(0.000360188 -0.000688612 0.00133072) avg:(-8.3426e-06 -3.48099e-07 4.57961e-06)
     feature  : max:(-0.000101457 0.000144956 -0.000505499) avg:(1.13206e-06 -1.02787e-07 -6.88184e-08)
Feature analysis : total master points:45941 attraction to :
    feature point   : 0
    feature edge    : 536
    nearest surface : 0
    rest            : 45405

--> FOAM Warning : Displacement (0 3.32656e-05 -9.06606e-05) at mesh point 51473 coord (1.00117 -6.09457e-05 -0.114867) points through the surrounding patch faces
Smoothing displacement ...
Iteration 0
Iteration 10
Iteration 20
Iteration 30
Iteration 40
Iteration 50
Iteration 60
Iteration 70
Iteration 80
Iteration 90
Iteration 100
Iteration 110
Iteration 120
Iteration 130
Iteration 140
Iteration 150
Iteration 160
Iteration 170
Iteration 180
Displacement smoothed in = 51.05 s


Moving mesh ...

Iteration 0
Moving mesh using displacement scaling : min:1  max:1
Checking faces in error :
    faces with interpolation weights (0..1)  < 0           : 0
    faces with volume ratio of neighbour cells < 0         : 0
Successfully moved mesh
Moved mesh in = 3.67 s



Morph iteration 4
-----------------
Calculating patchDisplacement as distance to nearest surface point ...
Wanted displacement : average:5.7597e-05 min:5.53967e-09 max:0.000519227
Calculated surface displacement in = 0.09 s


Detecting near surfaces ...
Overriding nearest with intersection of close gaps at 0 out of 45941 points.
Overriding displacement on features :
   implicit features    : false
   explicit features    : true
   multi-patch features : false

Detected 18 baffle edges out of 90695 edges.
Initially selected 542 points out of 45941 for reverse attraction.
Selected 1681 points out of 45941 for reverse attraction.
Stringing feature edges : changed 5 points
Stringing feature edges : changed 0 points
Attraction:
     linear   : max:(0.000121361 -0.000232019 0.00044837) avg:(-1.9747e-06 -3.40345e-08 6.47884e-07)
     feature  : max:(-0.00026404 0.000168077 0.000500595) avg:(3.72883e-07 -3.70224e-08 -4.7806e-08)
Feature analysis : total master points:45941 attraction to :
    feature point   : 0
    feature edge    : 539
    nearest surface : 0
    rest            : 45402

--> FOAM Warning : Displacement (0 -2.04416e-06 -2.04415e-06) at mesh point 7881 coord (1 -0.000567198 -0.114429) points through the surrounding patch faces
Smoothing displacement ...
Iteration 0
Iteration 10
Iteration 20
Iteration 30
Iteration 40
Iteration 50
Iteration 60
Iteration 70
Iteration 80
Iteration 90
Iteration 100
Iteration 110
Iteration 120
Iteration 130
Iteration 140
Iteration 150
Iteration 160
Iteration 170
Iteration 180
Displacement smoothed in = 58.19 s


Moving mesh ...

Iteration 0
Moving mesh using displacement scaling : min:1  max:1
Checking faces in error :
    faces with interpolation weights (0..1)  < 0           : 0
    faces with volume ratio of neighbour cells < 0         : 0
Successfully moved mesh
Moved mesh in = 3.01 s


Repatching faces according to nearest surface ...
Repatched 0 faces in = 0.21 s


Edge intersection testing:
    Number of edges             : 5042799
    Number of edges to retest   : 159551
    Number of intersected edges : 44860
Merging 10109 sets of faces.

Edge intersection testing:
    Number of edges             : 5031777
    Number of edges to retest   : 42160
    Number of intersected edges : 32902

Undo iteration 0
----------------
Checking faces in error :
    faces with interpolation weights (0..1)  < 0           : 0
    faces with volume ratio of neighbour cells < 0         : 0

Merging all points on surface that
- are used by only two boundary faces and
- make an angle with a cosine of more than 6.12323e-17.

Removing 8914 straight edge points ...

Edge intersection testing:
    Number of edges             : 5031777
    Number of edges to retest   : 39032
    Number of intersected edges : 32898

Undo iteration 0
----------------
Checking faces in error :
    faces with interpolation weights (0..1)  < 0           : 0
    faces with volume ratio of neighbour cells < 0         : 0
Snapped mesh : cells:1644378  faces:5031777  points:1745934
Cells per refinement level:
    0	5860
    1	2146
    2	5594
    3	82840
    4	15308
    5	173089
    6	132962
    7	1207449
    8	19130
Writing mesh to time 2
Wrote mesh in = 27.53 s.
Mesh snapped in = 316.02 s.

Shrinking and layer addition phase
----------------------------------

Using mesh parameters 
{
    maxNonOrtho     180;
    maxBoundarySkewness -1;
    maxInternalSkewness -1;
    maxConcave      180;
    minVol          -1e+30;
    minTetQuality   -1e+30;
    minArea         -1;
    minTwist        -2;
    minDeterminant  -1;
    minFaceWeight   0;
    minVolRatio     0;
    minTriangleTwist -1;
    nSmoothScale    100;
    errorReduction  0.75;
}



Merging all faces of a cell
---------------------------
    - which are on the same patch
    - which make an angle < 90 degrees
      (cos:6.12323e-17)
    - as long as the resulting face doesn't become concave by more than 90 degrees
      (0=straight, 180=fully concave)

Merging 0 sets of faces.

No faces merged ...

Merging all points on surface that
- are used by only two boundary faces and
- make an angle with a cosine of more than 6.12323e-17.

No straight edges simplified and no points removed ...

Checking mesh manifoldness ...

Checking initial mesh ...
Checking faces in error :
    faces with interpolation weights (0..1)  < 0           : 0
    faces with volume ratio of neighbour cells < 0         : 0
Detected 0 illegal faces (concave, zero area or negative cell pyramid volume)

Adding in total 0 inter-processor patches to handle extrusion of non-manifold processor boundaries.

Handling points with inconsistent layer specification ...

Handling non-manifold points ...

Checking patch manifoldness ...
Outside of local patch is multiply connected across edges or points at 0 points.
Set displacement to zero for all 0 non-manifold points

Handling feature edges ...

patch  faces    layers avg thickness[m]
                       near-wall overall
-----  -----    ------ --------- -------
rocket 33734    10     2e-05     0.0015  

Selecting externalDisplacementMeshMover displacementMedialAxis
displacementMedialAxis : Calculating distance to Medial Axis ...
displacementMedialAxis : Smoothing normals ...
    Iteration 0   residual 0.0363976
    Iteration 10   residual 0.0155785
displacementMedialAxis : Inserting points on patch inlet if angle to nearest layer patch > 20 degrees.
displacementMedialAxis : Inserting points on patch outlet if angle to nearest layer patch > 20 degrees.
displacementMedialAxis : Inserting points on patch walls if angle to nearest layer patch > 20 degrees.
displacementMedialAxis : Smoothing normals in interior ...
    Iteration 0   residual 0.0407186
    Iteration 10   residual 0.00817331

Layer addition iteration 0
--------------------------

Determining displacement for added points according to pointNormal ...
Detected 0 points with point normal pointing through faces.
Reset displacement at 0 points to average of surrounding points.

displacementMedialAxis : Smoothing using Medial Axis ...
displacementMedialAxis : Reducing layer thickness at 0 nodes where thickness to medial axis distance is large 
displacementMedialAxis : Removing isolated regions ...
displacementMedialAxis : Number of isolated points extrusion stopped : 0
displacementMedialAxis : Smoothing field ...
    Iteration 0   residual 3.33892e-20
    Iteration 10   residual 2.24856e-20
displacementMedialAxis : Moving mesh ...
displacementMedialAxis : Iteration 0
Moving mesh using displacement scaling : min:1  max:1
Checking faces in error :
    faces with interpolation weights (0..1)  < 0           : 0
    faces with volume ratio of neighbour cells < 0         : 0
displacementMedialAxis : Successfully moved mesh
displacementMedialAxis : Finished moving mesh ...
truncateDisplacement : Unextruded 0 faces due to non-consecutive vertices being extruded.
truncateDisplacement : Unextruded 0 faces due to stringed edges with inconsistent extrusion.

Setting up information for layer truncation ...

Checking mesh with layer ...
Checking faces in error :
    faces with interpolation weights (0..1)  < 0           : 0
    faces with volume ratio of neighbour cells < 0         : 0
Detected 0 illegal faces (concave, zero area or negative cell pyramid volume)
Extruding 33734 out of 33734 faces (100%). Removed extrusion at 0 faces.
Added 337340 out of 337340 cells (100%).
Edge intersection testing:
    Number of edges             : 6067487
    Number of edges to retest   : 0
    Number of intersected edges : 360818
Writing 337340 added cells to cellSet addedCells
Writing 303606 faces inside added layer to faceSet layerFaces

Writing fields with layer information:
    nSurfaceLayers    : actual number of layers
    thickness         : overall layer thickness
    thicknessFraction : overall layer thickness (fraction of desired thickness)


patch  faces    layers   overall thickness
                         [m]       [%]
-----  -----    ------   ---       ---
rocket 33734    10       0.0015    100     

Layer mesh : cells:1981718  faces:6067487  points:2107084
Cells per refinement level:
    0	5860
    1	2146
    2	5594
    3	82840
    4	15308
    5	224979
    6	135022
    7	1372179
    8	137790
Writing mesh to time 3
Wrote mesh in = 43.4 s.
Layers added in = 43.4 s.
Checking final mesh ...
Checking faces in error :
    faces with interpolation weights (0..1)  < 0           : 0
    faces with volume ratio of neighbour cells < 0         : 0
Finished meshing without any errors
Finished meshing in = 544.17 s.
End

