/*---------------------------------------------------------------------------*\
  =========                 |
  \\      /  F ield         | OpenFOAM: The Open Source CFD Toolbox
   \\    /   O peration     | Website:  https://openfoam.org
    \\  /    A nd           | Version:  7
     \\/     M anipulation  |
\*---------------------------------------------------------------------------*/
Build  : 7
Exec   : snappyHexMesh
Date   : Mar 14 2021
Time   : 12:25:31
Host   : "lucamignozzi-ROG-Zephyrus-G14-GA401IV-GA401IV"
PID    : 8041
I/O    : uncollated
Case   : /home/lucamignozzi/Desktop/Skyward/computational-fluid-dynamics/meshSnappy
nProcs : 1
sigFpe : Enabling floating point exception trapping (FOAM_SIGFPE).
fileModificationChecking : Monitoring run-time modified files using timeStampMaster (fileModificationSkew 10)
allowSystemOperations : Allowing user-supplied system call operations

// * * * * * * * * * * * * * * * * * * * * * * * * * * * * * * * * * * * * * //
Create time

Create mesh for time = 0

Read mesh in = 0 s

Overall mesh bounding box  : (-3 -2.99405 -2.9992) (13 2.99408 2.99233)
Relative tolerance         : 1e-06
Absolute matching distance : 1.8104e-05

Reading refinement surfaces.
Read refinement surfaces in = 0.01 s

Reading refinement shells.
Refinement level 4 for all cells inside region
Refinement level 8 for all cells inside ogive_1
Refinement level 6 for all cells inside ogive_2
Refinement level 8 for all cells inside winglet_1
Refinement level 7 for all cells inside winglet_2
Refinement level 8 for all cells inside wake_near_1
Refinement level 6 for all cells inside wake_near_2
Refinement level 5 for all cells inside wake_near_3
Refinement level 3 for all cells inside wake_coarse
Read refinement shells in = 0 s

Setting refinement level of surface to be consistent with shells.
Checked shell refinement in = 0 s

Reading features.
Read edgeMesh rocket.eMesh
    points      : 203
    edges       : 237
    boundingBox : (0 -0.165245 -0.0971039) (2.495 0.168821 0.19238)

Refinement level according to distance to "rocket.eMesh" (203 points, 237 edges).
    level 8 for all cells within 0 metre.
Read features in = 0 s


Determining initial surface intersections
-----------------------------------------

Edge intersection testing:
    Number of edges             : 7972
    Number of edges to retest   : 7972
    Number of intersected edges : 0
Calculated surface intersections in = 0.01 s

Initial mesh : cells:2520  faces:7972  points:2953
Cells per refinement level:
    0	2520

Adding patches for surface regions
----------------------------------

Patch Type                Region                        
----- ----                ------                        
rocket:

3     wall                rocket                        

Added patches in = 0 s

 Foam::decompositionMethod::New 
{
    method          none;
    numberOfSubdomains 1;
}

Selecting decompositionMethod none
Layer thickness specified as first layer and overall thickness.

Refinement phase
----------------

Found point (0.001 0.1 0.001) in cell 1820 on processor 0

Feature refinement iteration 0
------------------------------

Marked for refinement due to explicit features             : 8 cells.
Determined cells to refine in = 0.01 s
Selected for feature refinement : 8 cells (out of 2520)
Edge intersection testing:
    Number of edges             : 8188
    Number of edges to retest   : 392
    Number of intersected edges : 3
Refined mesh in = 0.01 s
After refinement feature refinement iteration 0 : cells:2576  faces:8188  points:3067
Cells per refinement level:
    0	2512
    1	64

Feature refinement iteration 1
------------------------------

Marked for refinement due to explicit features             : 11 cells.
Determined cells to refine in = 0.01 s
Selected for feature refinement : 22 cells (out of 2576)
Edge intersection testing:
    Number of edges             : 8746
    Number of edges to retest   : 944
    Number of intersected edges : 7
Refined mesh in = 0 s
After refinement feature refinement iteration 1 : cells:2730  faces:8746  points:3331
Cells per refinement level:
    0	2501
    1	141
    2	88

Feature refinement iteration 2
------------------------------

Marked for refinement due to explicit features             : 23 cells.
Determined cells to refine in = 0.02 s
Selected for feature refinement : 46 cells (out of 2730)
Edge intersection testing:
    Number of edges             : 9907
    Number of edges to retest   : 1913
    Number of intersected edges : 75
Refined mesh in = 0 s
After refinement feature refinement iteration 2 : cells:3052  faces:9907  points:3874
Cells per refinement level:
    0	2493
    1	190
    2	185
    3	184

Feature refinement iteration 3
------------------------------

Marked for refinement due to explicit features             : 48 cells.
Determined cells to refine in = 0.02 s
Selected for feature refinement : 82 cells (out of 3052)
Edge intersection testing:
    Number of edges             : 11947
    Number of edges to retest   : 3283
    Number of intersected edges : 251
Refined mesh in = 0.01 s
After refinement feature refinement iteration 3 : cells:3626  faces:11947  points:4799
Cells per refinement level:
    0	2490
    1	203
    2	253
    3	296
    4	384

Feature refinement iteration 4
------------------------------

Marked for refinement due to explicit features             : 99 cells.
Determined cells to refine in = 0.01 s
Selected for feature refinement : 196 cells (out of 3626)
Edge intersection testing:
    Number of edges             : 16822
    Number of edges to retest   : 7863
    Number of intersected edges : 705
Refined mesh in = 0.02 s
After refinement feature refinement iteration 4 : cells:4998  faces:16822  points:7009
Cells per refinement level:
    0	2485
    1	233
    2	310
    3	421
    4	757
    5	792

Feature refinement iteration 5
------------------------------

Marked for refinement due to explicit features             : 205 cells.
Determined cells to refine in = 0.03 s
Selected for feature refinement : 437 cells (out of 4998)
Edge intersection testing:
    Number of edges             : 27637
    Number of edges to retest   : 17346
    Number of intersected edges : 1926
Refined mesh in = 0.02 s
After refinement feature refinement iteration 5 : cells:8057  faces:27637  points:11882
Cells per refinement level:
    0	2476
    1	296
    2	364
    3	518
    4	984
    5	1779
    6	1640

Feature refinement iteration 6
------------------------------

Marked for refinement due to explicit features             : 463 cells.
Determined cells to refine in = 0.04 s
Selected for feature refinement : 940 cells (out of 8057)
Edge intersection testing:
    Number of edges             : 50950
    Number of edges to retest   : 36153
    Number of intersected edges : 5045
Refined mesh in = 0.06 s
After refinement feature refinement iteration 6 : cells:14637  faces:50950  points:22382
Cells per refinement level:
    0	2476
    1	296
    2	352
    3	587
    4	1094
    5	2295
    6	3833
    7	3704

Feature refinement iteration 7
------------------------------

Marked for refinement due to explicit features             : 1122 cells.
Determined cells to refine in = 0.07 s
Selected for feature refinement : 2201 cells (out of 14637)
Edge intersection testing:
    Number of edges             : 105379
    Number of edges to retest   : 83769
    Number of intersected edges : 13186
Refined mesh in = 0.14 s
After refinement feature refinement iteration 7 : cells:30044  faces:105379  points:46785
Cells per refinement level:
    0	2476
    1	296
    2	349
    3	606
    4	1067
    5	2582
    6	5070
    7	8622
    8	8976

Feature refinement iteration 8
------------------------------

Marked for refinement due to explicit features             : 0 cells.
Determined cells to refine in = 0.2 s
Selected for feature refinement : 0 cells (out of 30044)
Stopping refining since too few cells selected.


Surface refinement iteration 0
------------------------------

Marked for refinement due to surface intersection          : 2168 cells.
Marked for refinement due to curvature/regions             : 1133 cells.
Determined cells to refine in = 0.02 s
Selected for refinement : 3555 cells (out of 30044)
Edge intersection testing:
    Number of edges             : 186670
    Number of edges to retest   : 133564
    Number of intersected edges : 23609
Refined mesh in = 0.22 s
After refinement surface refinement iteration 0 : cells:54929  faces:186670  points:78145
Cells per refinement level:
    0	2473
    1	317
    2	363
    3	656
    4	1145
    5	3182
    6	9120
    7	19633
    8	18040

Surface refinement iteration 1
------------------------------

Marked for refinement due to surface intersection          : 2850 cells.
Marked for refinement due to curvature/regions             : 1218 cells.
Determined cells to refine in = 0.04 s
Selected for refinement : 4431 cells (out of 54929)
Edge intersection testing:
    Number of edges             : 287824
    Number of edges to retest   : 161151
    Number of intersected edges : 38193
Refined mesh in = 0.3 s
After refinement surface refinement iteration 1 : cells:85946  faces:287824  points:117068
Cells per refinement level:
    0	2456
    1	432
    2	507
    3	789
    4	1467
    5	3693
    6	12379
    7	36439
    8	27784

Surface refinement iteration 2
------------------------------

Marked for refinement due to surface intersection          : 2228 cells.
Marked for refinement due to curvature/regions             : 1608 cells.
Determined cells to refine in = 0.07 s
Selected for refinement : 4101 cells (out of 85946)
Edge intersection testing:
    Number of edges             : 383467
    Number of edges to retest   : 143833
    Number of intersected edges : 53478
Refined mesh in = 0.35 s
After refinement surface refinement iteration 2 : cells:114653  faces:383467  points:155077
Cells per refinement level:
    0	2456
    1	429
    2	507
    3	928
    4	1677
    5	4917
    6	14572
    7	48519
    8	40648

Surface refinement iteration 3
------------------------------

Marked for refinement due to surface intersection          : 2297 cells.
Marked for refinement due to curvature/regions             : 128 cells.
Determined cells to refine in = 0.08 s
Selected for refinement : 2726 cells (out of 114653)
Edge intersection testing:
    Number of edges             : 446452
    Number of edges to retest   : 88151
    Number of intersected edges : 59339
Refined mesh in = 0.37 s
After refinement surface refinement iteration 3 : cells:133735  faces:446452  points:179910
Cells per refinement level:
    0	2456
    1	408
    2	651
    3	1052
    4	1957
    5	6189
    6	19911
    7	59439
    8	41672

Surface refinement iteration 4
------------------------------

Marked for refinement due to surface intersection          : 3602 cells.
Marked for refinement due to curvature/regions             : 0 cells.
Determined cells to refine in = 0.09 s
Selected for refinement : 3998 cells (out of 133735)
Edge intersection testing:
    Number of edges             : 538318
    Number of edges to retest   : 125504
    Number of intersected edges : 67147
Refined mesh in = 0.45 s
After refinement surface refinement iteration 4 : cells:161721  faces:538318  points:215816
Cells per refinement level:
    0	2454
    1	422
    2	643
    3	1180
    4	2213
    5	7269
    6	24973
    7	80895
    8	41672

Surface refinement iteration 5
------------------------------

Marked for refinement due to surface intersection          : 3607 cells.
Marked for refinement due to curvature/regions             : 0 cells.
Determined cells to refine in = 0.1 s
Selected for refinement : 4011 cells (out of 161721)
Edge intersection testing:
    Number of edges             : 630439
    Number of edges to retest   : 125689
    Number of intersected edges : 74813
Refined mesh in = 0.49 s
After refinement surface refinement iteration 5 : cells:189798  faces:630439  points:251786
Cells per refinement level:
    0	2448
    1	456
    2	732
    3	1300
    4	2469
    5	8357
    6	29965
    7	102399
    8	41672

Surface refinement iteration 6
------------------------------

Marked for refinement due to surface intersection          : 3594 cells.
Marked for refinement due to curvature/regions             : 0 cells.
Determined cells to refine in = 0.12 s
Selected for refinement : 3976 cells (out of 189798)
Edge intersection testing:
    Number of edges             : 721735
    Number of edges to retest   : 123964
    Number of intersected edges : 82443
Refined mesh in = 0.56 s
After refinement surface refinement iteration 6 : cells:217630  faces:721735  points:287416
Cells per refinement level:
    0	2448
    1	456
    2	718
    3	1354
    4	2677
    5	9445
    6	34957
    7	123903
    8	41672

Surface refinement iteration 7
------------------------------

Marked for refinement due to surface intersection          : 3532 cells.
Marked for refinement due to curvature/regions             : 0 cells.
Determined cells to refine in = 0.12 s
Selected for refinement : 3900 cells (out of 217630)
Edge intersection testing:
    Number of edges             : 811279
    Number of edges to retest   : 121088
    Number of intersected edges : 89931
Refined mesh in = 0.62 s
After refinement surface refinement iteration 7 : cells:244930  faces:811279  points:322348
Cells per refinement level:
    0	2448
    1	456
    2	718
    3	1338
    4	2569
    5	10373
    6	39949
    7	145407
    8	41672

Surface refinement iteration 8
------------------------------

Marked for refinement due to surface intersection          : 3304 cells.
Marked for refinement due to curvature/regions             : 0 cells.
Determined cells to refine in = 0.14 s
Selected for refinement : 3658 cells (out of 244930)
Edge intersection testing:
    Number of edges             : 895075
    Number of edges to retest   : 113587
    Number of intersected edges : 96849
Refined mesh in = 0.69 s
After refinement surface refinement iteration 8 : cells:270536  faces:895075  points:354904
Cells per refinement level:
    0	2448
    1	456
    2	718
    3	1324
    4	2597
    5	10173
    6	44237
    7	166911
    8	41672

Surface refinement iteration 9
------------------------------

Marked for refinement due to surface intersection          : 2352 cells.
Marked for refinement due to curvature/regions             : 0 cells.
Determined cells to refine in = 0.14 s
Selected for refinement : 2576 cells (out of 270536)
Edge intersection testing:
    Number of edges             : 953953
    Number of edges to retest   : 81048
    Number of intersected edges : 101605
Refined mesh in = 0.71 s
After refinement surface refinement iteration 9 : cells:288568  faces:953953  points:377642
Cells per refinement level:
    0	2448
    1	456
    2	718
    3	1324
    4	2597
    5	9949
    6	43677
    7	185727
    8	41672

Surface refinement iteration 10
------------------------------

Marked for refinement due to surface intersection          : 0 cells.
Marked for refinement due to curvature/regions             : 0 cells.
Determined cells to refine in = 0.14 s
Selected for refinement : 0 cells (out of 288568)
Stopping refining since too few cells selected.


Removing mesh beyond surface intersections
------------------------------------------

Found point (0.001 0.1 0.001) in global region 0 out of 39 regions.
Keeping all cells in region 0 containing point (0.001 0.1 0.001)
Selected for keeping : 241065 cells.
Edge intersection testing:
    Number of edges             : 816718
    Number of edges to retest   : 58344
    Number of intersected edges : 101605

Shell refinement iteration 0
----------------------------

Marked for refinement due to distance to explicit features : 0 cells.
Marked for refinement due to refinement shells             : 61125 cells.
Determined cells to refine in = 2.84 s
Selected for internal refinement : 61568 cells (out of 241065)
Edge intersection testing:
    Number of edges             : 2162587
    Number of edges to retest   : 1710001
    Number of intersected edges : 145473
Refined mesh in = 2.51 s
After refinement shell refinement iteration 0 : cells:672041  faces:2162587  points:818896
Cells per refinement level:
    0	2384
    1	936
    2	716
    3	2486
    4	8796
    5	12836
    6	42176
    7	184019
    8	417692

Shell refinement iteration 1
----------------------------

Marked for refinement due to distance to explicit features : 0 cells.
Marked for refinement due to refinement shells             : 91891 cells.
Determined cells to refine in = 0.29 s
Selected for internal refinement : 93135 cells (out of 672041)
Edge intersection testing:
    Number of edges             : 4133680
    Number of edges to retest   : 2741362
    Number of intersected edges : 145473
Refined mesh in = 4.08 s
After refinement shell refinement iteration 1 : cells:1323986  faces:4133680  points:1486142
Cells per refinement level:
    0	2284
    1	1427
    2	3094
    3	2972
    4	9494
    5	16864
    6	81892
    7	276715
    8	929244

Shell refinement iteration 2
----------------------------

Marked for refinement due to distance to explicit features : 0 cells.
Marked for refinement due to refinement shells             : 158253 cells.
Determined cells to refine in = 0.51 s
Selected for internal refinement : 160525 cells (out of 1323986)
Edge intersection testing:
    Number of edges             : 7526719
    Number of edges to retest   : 4413917
    Number of intersected edges : 145473
Refined mesh in = 6.77 s
After refinement shell refinement iteration 2 : cells:2447661  faces:7526719  points:2631968
Cells per refinement level:
    0	2260
    1	1465
    2	2634
    3	16380
    4	9430
    5	16684
    6	120280
    7	422316
    8	1856212

Shell refinement iteration 3
----------------------------

Marked for refinement due to distance to explicit features : 0 cells.
Marked for refinement due to refinement shells             : 180267 cells.
Determined cells to refine in = 0.94 s
Selected for internal refinement : 182298 cells (out of 2447661)
Edge intersection testing:
    Number of edges             : 11371918
    Number of edges to retest   : 4943865
    Number of intersected edges : 145473
Refined mesh in = 9.52 s
After refinement shell refinement iteration 3 : cells:3723747  faces:11371918  points:3925037
Cells per refinement level:
    0	2260
    1	1436
    2	2636
    3	18006
    4	10368
    5	19690
    6	113056
    7	538859
    8	3017436

Shell refinement iteration 4
----------------------------

Marked for refinement due to distance to explicit features : 0 cells.
Marked for refinement due to refinement shells             : 97556 cells.
Determined cells to refine in = 1.36 s
Selected for internal refinement : 98724 cells (out of 3723747)
Edge intersection testing:
    Number of edges             : 13458304
    Number of edges to retest   : 2761709
    Number of intersected edges : 145473
Refined mesh in = 10.46 s
After refinement shell refinement iteration 4 : cells:4414815  faces:13458304  points:4629346
Cells per refinement level:
    0	2260
    1	1436
    2	2636
    3	17898
    4	10366
    5	24366
    6	123754
    7	509223
    8	3722876

Shell refinement iteration 5
----------------------------

Marked for refinement due to distance to explicit features : 0 cells.
Marked for refinement due to refinement shells             : 13412 cells.
Determined cells to refine in = 1.47 s
Selected for internal refinement : 14020 cells (out of 4414815)
Edge intersection testing:
    Number of edges             : 13755499
    Number of edges to retest   : 384812
    Number of intersected edges : 145473
Refined mesh in = 9.57 s
After refinement shell refinement iteration 5 : cells:4512955  faces:13755499  points:4730273
Cells per refinement level:
    0	2260
    1	1436
    2	2636
    3	17880
    4	10272
    5	26246
    6	123086
    7	503223
    8	3825916

Shell refinement iteration 6
----------------------------

Marked for refinement due to distance to explicit features : 0 cells.
Marked for refinement due to refinement shells             : 1318 cells.
Determined cells to refine in = 1.71 s
Selected for internal refinement : 1364 cells (out of 4512955)
Edge intersection testing:
    Number of edges             : 13784407
    Number of edges to retest   : 61120
    Number of intersected edges : 145473
Refined mesh in = 9.48 s
After refinement shell refinement iteration 6 : cells:4522503  faces:13784407  points:4740086
Cells per refinement level:
    0	2260
    1	1436
    2	2636
    3	17880
    4	10256
    5	26372
    6	123044
    7	502399
    8	3836220

Shell refinement iteration 7
----------------------------

Marked for refinement due to distance to explicit features : 0 cells.
Marked for refinement due to refinement shells             : 0 cells.
Determined cells to refine in = 1.64 s
Selected for internal refinement : 0 cells (out of 4522503)
Stopping refining since too few cells selected.


Dangling coarse cells refinement iteration 0
--------------------------------------------

Determined cells to refine in = 0.1 s
Selected for refinement : 0 cells (out of 4522503)
Stopping refining since too few cells selected.


Dangling coarse cells refinement iteration 0
--------------------------------------------

Determined cells to refine in = 0.1 s
Selected for refinement : 0 cells (out of 4522503)
Stopping refining since too few cells selected.


Splitting mesh at surface intersections
---------------------------------------

Introducing baffles for 145473 faces that are intersected by the surface.

Edge intersection testing:
    Number of edges             : 13929880
    Number of edges to retest   : 855640
    Number of intersected edges : 290638
Created baffles in = 7.59 s


After introducing baffles : cells:4522503  faces:13929880  points:4740086
Cells per refinement level:
    0	2260
    1	1436
    2	2636
    3	17880
    4	10256
    5	26372
    6	123044
    7	502399
    8	3836220

Introducing baffles to block off problem cells
----------------------------------------------

markFacesOnProblemCells : marked 125535 additional internal faces to be converted into baffles.
Analyzed problem cells in = 7.05 s


Introducing baffles to delete problem cells.

Edge intersection testing:
    Number of edges             : 14055415
    Number of edges to retest   : 396017
    Number of intersected edges : 290678
Created baffles in = 7.41 s


After introducing baffles : cells:4522503  faces:14055415  points:4740086
Cells per refinement level:
    0	2260
    1	1436
    2	2636
    3	17880
    4	10256
    5	26372
    6	123044
    7	502399
    8	3836220

Remove unreachable sections of mesh
-----------------------------------

Keeping all cells in region 0 containing point (0.001 0.1 0.001)
Selected for keeping : 4342765 cells.
Edge intersection testing:
    Number of edges             : 13265449
    Number of edges to retest   : 0
    Number of intersected edges : 144740
Split mesh in = 45.79 s


After subsetting : cells:4342765  faces:13265449  points:4576902
Cells per refinement level:
    0	2260
    1	1436
    2	2636
    3	17880
    4	10256
    5	26372
    6	122907
    7	456945
    8	3702073

Handling cells with snap problems
---------------------------------

Introducing baffles for 144740 faces that are intersected by the surface.

Edge intersection testing:
    Number of edges             : 13265449
    Number of edges to retest   : 459925
    Number of intersected edges : 144740
Created baffles in = 5.71 s


After introducing baffles : cells:4342765  faces:13265449  points:4576902
Cells per refinement level:
    0	2260
    1	1436
    2	2636
    3	17880
    4	10256
    5	26372
    6	122907
    7	456945
    8	3702073

Introducing baffles to block off problem cells
----------------------------------------------

markFacesOnProblemCells : marked 0 additional internal faces to be converted into baffles.
Analyzed problem cells in = 6.66 s


Introducing baffles to delete problem cells.

Edge intersection testing:
    Number of edges             : 13265449
    Number of edges to retest   : 0
    Number of intersected edges : 144740
Created baffles in = 5.38 s


After introducing baffles : cells:4342765  faces:13265449  points:4576902
Cells per refinement level:
    0	2260
    1	1436
    2	2636
    3	17880
    4	10256
    5	26372
    6	122907
    7	456945
    8	3702073

Remove unreachable sections of mesh
-----------------------------------

Keeping all cells in region 0 containing point (0.001 0.1 0.001)
Selected for keeping : 4342765 cells.
Edge intersection testing:
    Number of edges             : 13265449
    Number of edges to retest   : 0
    Number of intersected edges : 144740
Split mesh in = 43.96 s


After subsetting : cells:4342765  faces:13265449  points:4576902
Cells per refinement level:
    0	2260
    1	1436
    2	2636
    3	17880
    4	10256
    5	26372
    6	122907
    7	456945
    8	3702073

Merge free-standing baffles
---------------------------

freeStandingBaffles : detected 283 free-standing baffles out of 283

freeStandingBaffles : detected 252 planar (within 90 degrees) free-standing baffles out of 283

Detected free-standing baffles : 252
Edge intersection testing:
    Number of edges             : 13265197
    Number of edges to retest   : 252
    Number of intersected edges : 144488

Introducing baffles to block off problem cells
----------------------------------------------

markFacesOnProblemCells : marked 0 additional internal faces to be converted into baffles.
Analyzed problem cells in = 13.44 s


Introducing baffles to delete problem cells.

Edge intersection testing:
    Number of edges             : 13265197
    Number of edges to retest   : 0
    Number of intersected edges : 144488
Created baffles in = 5.2 s


After introducing baffles : cells:4342765  faces:13265197  points:4576902
Cells per refinement level:
    0	2260
    1	1436
    2	2636
    3	17880
    4	10256
    5	26372
    6	122907
    7	456945
    8	3702073
Merged free-standing baffles in = 0.02 s


dupNonManifoldPoints : Found : 3371 non-manifold points (out of 4576902)
Edge intersection testing:
    Number of edges             : 13265197
    Number of edges to retest   : 0
    Number of intersected edges : 144488
Detected unsplittable baffles : 0

Merge refined boundary faces
----------------------------

Merging 21 sets of faces.

Edge intersection testing:
    Number of edges             : 13265176
    Number of edges to retest   : 176
    Number of intersected edges : 144467

Undo iteration 0
----------------
Checking faces in error :
    faces with interpolation weights (0..1)  < 0           : 0
    faces with volume ratio of neighbour cells < 0         : 0

Merging all points on surface that
- are used by only two boundary faces and
- make an angle with a cosine of more than 0.707107.

Removing 21 straight edge points ...

Edge intersection testing:
    Number of edges             : 13265176
    Number of edges to retest   : 187
    Number of intersected edges : 144467

Undo iteration 0
----------------
Checking faces in error :
    faces with interpolation weights (0..1)  < 0           : 0
    faces with volume ratio of neighbour cells < 0         : 0
Refined mesh : cells:4342765  faces:13265176  points:4580252
Cells per refinement level:
    0	2260
    1	1436
    2	2636
    3	17880
    4	10256
    5	26372
    6	122907
    7	456945
    8	3702073
Writing mesh to time 1
Wrote mesh in = 35.99 s.
Mesh refined in = 254.04 s.

Morphing phase
--------------


Snapping to features in 5 iterations ...
Constructing mesh displacer ...
Using mesh parameters 
{
    maxNonOrtho     180;
    maxBoundarySkewness -1;
    maxInternalSkewness -1;
    maxConcave      180;
    minVol          -1e+30;
    minTetQuality   -1e+30;
    minArea         -1;
    minTwist        -2;
    minDeterminant  -1;
    minFaceWeight   0;
    minVolRatio     0;
    minTriangleTwist -1;
    nSmoothScale    100;
    errorReduction  0.75;
}


Checking initial mesh ...
Checking faces in error :
    faces with interpolation weights (0..1)  < 0           : 0
    faces with volume ratio of neighbour cells < 0         : 0
Detected 0 illegal faces (concave, zero area or negative cell pyramid volume)
Checked initial mesh in = 2.27 s


Smoothing patch points ...
Smoothing iteration 0
Found 6742 non-manifold point(s).

Scaling iteration 0
Moving mesh using displacement scaling : min:1  max:1
Checking faces in error :
    faces with interpolation weights (0..1)  < 0           : 0
    faces with volume ratio of neighbour cells < 0         : 0
Successfully moved mesh

Smoothing iteration 1
Found 0 non-manifold point(s).

Scaling iteration 0
Moving mesh using displacement scaling : min:1  max:1
Checking faces in error :
    faces with interpolation weights (0..1)  < 0           : 0
    faces with volume ratio of neighbour cells < 0         : 0
Successfully moved mesh

Smoothing iteration 2
Found 0 non-manifold point(s).

Scaling iteration 0
Moving mesh using displacement scaling : min:1  max:1
Checking faces in error :
    faces with interpolation weights (0..1)  < 0           : 0
    faces with volume ratio of neighbour cells < 0         : 0
Successfully moved mesh

Patch points smoothed in = 10.54 s



Morph iteration 0
-----------------
Calculating patchDisplacement as distance to nearest surface point ...
Wanted displacement : average:0.000568654 min:1.01362e-08 max:0.0021117
Calculated surface displacement in = 0.07 s


Detecting near surfaces ...
Overriding nearest with intersection of close gaps at 4425 out of 144663 points.
Overriding displacement on features :
   implicit features    : false
   explicit features    : true
   multi-patch features : false

Detected 62 baffle edges out of 289195 edges.
Initially selected 570 points out of 144663 for reverse attraction.
Selected 2256 points out of 144663 for reverse attraction.
Stringing feature edges : changed 72 points
Stringing feature edges : changed 3 points
Stringing feature edges : changed 3 points
Stringing feature edges : changed 1 points
Stringing feature edges : changed 3 points
Stringing feature edges : changed 1 points
Stringing feature edges : changed 3 points
Stringing feature edges : changed 1 points
Stringing feature edges : changed 3 points
Stringing feature edges : changed 1 points
Stringing feature edges : changed 3 points
Stringing feature edges : changed 1 points
Stringing feature edges : changed 3 points
Stringing feature edges : changed 1 points
Stringing feature edges : changed 1 points
Stringing feature edges : changed 0 points
Attraction:
     linear   : max:(-9.5854e-07 -0.000409704 -0.00207158) avg:(2.1289e-05 4.87035e-05 -1.10321e-05)
     feature  : max:(-0.00168682 0.00166807 0.000466044) avg:(-6.9248e-07 4.14387e-07 3.37344e-07)
Feature analysis : total master points:144663 attraction to :
    feature point   : 0
    feature edge    : 622
    nearest surface : 0
    rest            : 144041

--> FOAM Warning : Displacement (-8.69173e-05 0.000131686 0.000166597) at mesh point 32451 coord (2.2995 0.00188859 0.154028) points through the surrounding patch faces
Smoothing displacement ...
Iteration 0
Iteration 10
Iteration 20
Iteration 30
Iteration 40
Iteration 50
Iteration 60
Iteration 70
Iteration 80
Iteration 90
Iteration 100
Iteration 110
Iteration 120
Iteration 130
Iteration 140
Iteration 150
Iteration 160
Iteration 170
Iteration 180
Displacement smoothed in = 58.83 s


Moving mesh ...

Iteration 0
Moving mesh using displacement scaling : min:1  max:1
Checking faces in error :
    faces with interpolation weights (0..1)  < 0           : 0
    faces with volume ratio of neighbour cells < 0         : 0
Successfully moved mesh
Moved mesh in = 3.07 s



Morph iteration 1
-----------------
Calculating patchDisplacement as distance to nearest surface point ...
Wanted displacement : average:0.000478836 min:2.51863e-09 max:0.00186097
Calculated surface displacement in = 0.08 s


Detecting near surfaces ...
Overriding nearest with intersection of close gaps at 2650 out of 144663 points.
Overriding displacement on features :
   implicit features    : false
   explicit features    : true
   multi-patch features : false

Detected 65 baffle edges out of 289195 edges.
Initially selected 595 points out of 144663 for reverse attraction.
Selected 2318 points out of 144663 for reverse attraction.
Stringing feature edges : changed 79 points
Stringing feature edges : changed 4 points
Stringing feature edges : changed 3 points
Stringing feature edges : changed 1 points
Stringing feature edges : changed 3 points
Stringing feature edges : changed 1 points
Stringing feature edges : changed 3 points
Stringing feature edges : changed 1 points
Stringing feature edges : changed 3 points
Stringing feature edges : changed 1 points
Stringing feature edges : changed 3 points
Stringing feature edges : changed 1 points
Stringing feature edges : changed 3 points
Stringing feature edges : changed 1 points
Stringing feature edges : changed 0 points
Attraction:
     linear   : max:(-8.4473e-07 -0.000361059 -0.00182561) avg:(1.72996e-05 3.92725e-05 -8.87445e-06)
     feature  : max:(-0.00161935 0.00159825 0.000442037) avg:(-7.43392e-07 3.85494e-07 3.83755e-07)
Feature analysis : total master points:144663 attraction to :
    feature point   : 0
    feature edge    : 651
    nearest surface : 0
    rest            : 144012

--> FOAM Warning : Displacement (-0.000163515 0.000137679 0.000313427) at mesh point 32451 coord (2.29941 0.00202027 0.154194) points through the surrounding patch faces
Smoothing displacement ...
Iteration 0
Iteration 10
Iteration 20
Iteration 30
Iteration 40
Iteration 50
Iteration 60
Iteration 70
Iteration 80
Iteration 90
Iteration 100
Iteration 110
Iteration 120
Iteration 130
Iteration 140
Iteration 150
Iteration 160
Iteration 170
Iteration 180
Displacement smoothed in = 59.78 s


Moving mesh ...

Iteration 0
Moving mesh using displacement scaling : min:1  max:1
Checking faces in error :
    faces with interpolation weights (0..1)  < 0           : 0
    faces with volume ratio of neighbour cells < 0         : 0
Successfully moved mesh
Moved mesh in = 3.02 s



Morph iteration 2
-----------------
Calculating patchDisplacement as distance to nearest surface point ...
Wanted displacement : average:0.000324618 min:1.29218e-10 max:0.00136874
Calculated surface displacement in = 0.09 s


Detecting near surfaces ...
Overriding nearest with intersection of close gaps at 145 out of 144663 points.
Overriding displacement on features :
   implicit features    : false
   explicit features    : true
   multi-patch features : false

Detected 99 baffle edges out of 289195 edges.
Initially selected 639 points out of 144663 for reverse attraction.
Selected 2411 points out of 144663 for reverse attraction.
Stringing feature edges : changed 80 points
Stringing feature edges : changed 2 points
Stringing feature edges : changed 0 points
Attraction:
     linear   : max:(-6.21297e-07 -0.000265558 -0.00134274) avg:(1.07427e-05 2.38451e-05 -5.50932e-06)
     feature  : max:(-0.00144271 0.00133768 0.000146177) avg:(-8.50507e-07 2.45527e-07 1.96644e-07)
Feature analysis : total master points:144663 attraction to :
    feature point   : 0
    feature edge    : 681
    nearest surface : 0
    rest            : 143982

--> FOAM Warning : Displacement (-0.000189571 1.97213e-06 0.000363395) at mesh point 32451 coord (2.29925 0.00215795 0.154508) points through the surrounding patch faces
Smoothing displacement ...
Iteration 0
Iteration 10
Iteration 20
Iteration 30
Iteration 40
Iteration 50
Iteration 60
Iteration 70
Iteration 80
Iteration 90
Iteration 100
Iteration 110
Iteration 120
Iteration 130
Iteration 140
Iteration 150
Iteration 160
Iteration 170
Iteration 180
Displacement smoothed in = 58.56 s


Moving mesh ...

Iteration 0
Moving mesh using displacement scaling : min:1  max:1
Checking faces in error :
    faces with interpolation weights (0..1)  < 0           : 0
    faces with volume ratio of neighbour cells < 0         : 0
Successfully moved mesh
Moved mesh in = 3.01 s



Morph iteration 3
-----------------
Calculating patchDisplacement as distance to nearest surface point ...
Wanted displacement : average:0.000165734 min:3.39202e-09 max:0.00111272
Calculated surface displacement in = 0.09 s


Detecting near surfaces ...
Overriding nearest with intersection of close gaps at 28 out of 144663 points.
Overriding displacement on features :
   implicit features    : false
   explicit features    : true
   multi-patch features : false

Detected 160 baffle edges out of 289195 edges.
Initially selected 614 points out of 144663 for reverse attraction.
Selected 2359 points out of 144663 for reverse attraction.
Stringing feature edges : changed 57 points
Stringing feature edges : changed 2 points
Stringing feature edges : changed 0 points
Attraction:
     linear   : max:(0 0.000556358 0.000963641) avg:(4.62135e-06 9.66941e-06 -2.39782e-06)
     feature  : max:(-0.001721 -0.000760615 0.00201529) avg:(-6.75786e-07 1.18601e-07 1.53825e-07)
Feature analysis : total master points:144663 attraction to :
    feature point   : 0
    feature edge    : 679
    nearest surface : 0
    rest            : 143984

--> FOAM Warning : Displacement (7.019e-08 1.05918e-05 6.76475e-06) at mesh point 655670 coord (0.24167 0.072092 0.00790599) points through the surrounding patch faces
Smoothing displacement ...
Iteration 0
Iteration 10
Iteration 20
Iteration 30
Iteration 40
Iteration 50
Iteration 60
Iteration 70
Iteration 80
Iteration 90
Iteration 100
Iteration 110
Iteration 120
Iteration 130
Iteration 140
Iteration 150
Iteration 160
Iteration 170
Iteration 180
Displacement smoothed in = 58.33 s


Moving mesh ...

Iteration 0
Moving mesh using displacement scaling : min:1  max:1
Checking faces in error :
    faces with interpolation weights (0..1)  < 0           : 0
    faces with volume ratio of neighbour cells < 0         : 0
Successfully moved mesh
Moved mesh in = 3 s



Morph iteration 4
-----------------
Calculating patchDisplacement as distance to nearest surface point ...
Wanted displacement : average:5.23318e-05 min:7.85959e-10 max:0.00110639
Calculated surface displacement in = 0.08 s


Detecting near surfaces ...
Overriding nearest with intersection of close gaps at 307 out of 144663 points.
Overriding displacement on features :
   implicit features    : false
   explicit features    : true
   multi-patch features : false

Detected 323 baffle edges out of 289195 edges.
Initially selected 722 points out of 144663 for reverse attraction.
Selected 2512 points out of 144663 for reverse attraction.
Stringing feature edges : changed 47 points
Stringing feature edges : changed 0 points
Attraction:
     linear   : max:(0 -0.000553195 0.000958163) avg:(1.16893e-06 2.03721e-06 -8.04809e-07)
     feature  : max:(-0.0013287 0.00132916 0.00043578) avg:(-2.96416e-07 -3.19674e-07 2.62564e-07)
Feature analysis : total master points:144663 attraction to :
    feature point   : 0
    feature edge    : 756
    nearest surface : 0
    rest            : 143907

--> FOAM Warning : Displacement (-1.12225e-06 1.44821e-05 3.51658e-06) at mesh point 321456 coord (0.244 0.0720822 0.00798556) points through the surrounding patch faces
Smoothing displacement ...
Iteration 0
Iteration 10
Iteration 20
Iteration 30
Iteration 40
Iteration 50
Iteration 60
Iteration 70
Iteration 80
Iteration 90
Iteration 100
Iteration 110
Iteration 120
Iteration 130
Iteration 140
Iteration 150
Iteration 160
Iteration 170
Iteration 180
Displacement smoothed in = 58.39 s


Moving mesh ...

Iteration 0
Moving mesh using displacement scaling : min:1  max:1
Checking faces in error :
    faces with interpolation weights (0..1)  < 0           : 0
    faces with volume ratio of neighbour cells < 0         : 0
Successfully moved mesh
Moved mesh in = 2.99 s


Repatching faces according to nearest surface ...
Repatched 0 faces in = 0.5 s


Edge intersection testing:
    Number of edges             : 13265176
    Number of edges to retest   : 464201
    Number of intersected edges : 144532
Merging 38119 sets of faces.

Edge intersection testing:
    Number of edges             : 13224583
    Number of edges to retest   : 152688
    Number of intersected edges : 103792

Undo iteration 0
----------------
Checking faces in error :
    faces with interpolation weights (0..1)  < 0           : 0
    faces with volume ratio of neighbour cells < 0         : 0

Merging all points on surface that
- are used by only two boundary faces and
- make an angle with a cosine of more than 6.12323e-17.

Removing 35336 straight edge points ...

Edge intersection testing:
    Number of edges             : 13224583
    Number of edges to retest   : 148440
    Number of intersected edges : 103643

Undo iteration 0
----------------
Checking faces in error :
    faces with interpolation weights (0..1)  < 0           : 0
    faces with volume ratio of neighbour cells < 0         : 0
Snapped mesh : cells:4342765  faces:13224583  points:4542442
Cells per refinement level:
    0	2260
    1	1436
    2	2636
    3	17880
    4	10256
    5	26372
    6	122907
    7	456945
    8	3702073
Writing mesh to time 2
Wrote mesh in = 39.03 s.
Mesh snapped in = 361.73 s.

Shrinking and layer addition phase
----------------------------------

Using mesh parameters 
{
    maxNonOrtho     180;
    maxBoundarySkewness -1;
    maxInternalSkewness -1;
    maxConcave      180;
    minVol          -1e+30;
    minTetQuality   -1e+30;
    minArea         -1;
    minTwist        -2;
    minDeterminant  -1;
    minFaceWeight   0;
    minVolRatio     0;
    minTriangleTwist -1;
    nSmoothScale    100;
    errorReduction  0.75;
}



Merging all faces of a cell
---------------------------
    - which are on the same patch
    - which make an angle < 90 degrees
      (cos:6.12323e-17)
    - as long as the resulting face doesn't become concave by more than 90 degrees
      (0=straight, 180=fully concave)

Merging 0 sets of faces.

No faces merged ...

Merging all points on surface that
- are used by only two boundary faces and
- make an angle with a cosine of more than 6.12323e-17.

No straight edges simplified and no points removed ...

Checking mesh manifoldness ...

Checking initial mesh ...
Checking faces in error :
    faces with interpolation weights (0..1)  < 0           : 0
    faces with volume ratio of neighbour cells < 0         : 0
Detected 0 illegal faces (concave, zero area or negative cell pyramid volume)

Adding in total 0 inter-processor patches to handle extrusion of non-manifold processor boundaries.

Handling points with inconsistent layer specification ...

Handling non-manifold points ...

Checking patch manifoldness ...
Outside of local patch is multiply connected across edges or points at 0 points.
Set displacement to zero for all 0 non-manifold points

Handling feature edges ...

patch  faces    layers avg thickness[m]
                       near-wall overall
-----  -----    ------ --------- -------
rocket 103941   10     1e-05     0.0025  

Selecting externalDisplacementMeshMover displacementMedialAxis
displacementMedialAxis : Calculating distance to Medial Axis ...
displacementMedialAxis : Smoothing normals ...
    Iteration 0   residual 0.0187537
    Iteration 10   residual 0.00681058
displacementMedialAxis : Inserting points on patch inlet if angle to nearest layer patch > 20 degrees.
displacementMedialAxis : Inserting points on patch outlet if angle to nearest layer patch > 20 degrees.
displacementMedialAxis : Inserting points on patch walls if angle to nearest layer patch > 20 degrees.
displacementMedialAxis : Smoothing normals in interior ...
    Iteration 0   residual 0.0257935
    Iteration 10   residual 0.00465452

Layer addition iteration 0
--------------------------

Determining displacement for added points according to pointNormal ...
Detected 26 points with point normal pointing through faces.
Reset displacement at 26 points to average of surrounding points.

displacementMedialAxis : Smoothing using Medial Axis ...
displacementMedialAxis : Reducing layer thickness at 0 nodes where thickness to medial axis distance is large 
displacementMedialAxis : Removing isolated regions ...
displacementMedialAxis : Number of isolated points extrusion stopped : 0
displacementMedialAxis : Smoothing field ...
    Iteration 0   residual 3.77014e-08
    Iteration 10   residual 7.23958e-09
displacementMedialAxis : Moving mesh ...
displacementMedialAxis : Iteration 0
Moving mesh using displacement scaling : min:1  max:1
Checking faces in error :
    faces with interpolation weights (0..1)  < 0           : 0
    faces with volume ratio of neighbour cells < 0         : 0
displacementMedialAxis : Successfully moved mesh
displacementMedialAxis : Finished moving mesh ...
truncateDisplacement : Unextruded 0 faces due to non-consecutive vertices being extruded.
truncateDisplacement : Unextruded 0 faces due to stringed edges with inconsistent extrusion.

Setting up information for layer truncation ...

Checking mesh with layer ...
Checking faces in error :
    faces with interpolation weights (0..1)  < 0           : 0
    faces with volume ratio of neighbour cells < 0         : 0
Detected 0 illegal faces (concave, zero area or negative cell pyramid volume)
Extruding 103941 out of 103941 faces (100%). Removed extrusion at 0 faces.
Added 1039410 out of 1039410 cells (100%).
Edge intersection testing:
    Number of edges             : 16371603
    Number of edges to retest   : 0
    Number of intersected edges : 1138493
Writing 1039410 added cells to cellSet addedCells
Writing 935469 faces inside added layer to faceSet layerFaces

Writing fields with layer information:
    nSurfaceLayers    : actual number of layers
    thickness         : overall layer thickness
    thicknessFraction : overall layer thickness (fraction of desired thickness)


patch  faces    layers   overall thickness
                         [m]       [%]
-----  -----    ------   ---       ---
rocket 103941   10       0.0025    100     

Layer mesh : cells:5382175  faces:16371603  points:5610972
Cells per refinement level:
    0	2260
    1	1436
    2	2636
    3	17880
    4	10256
    5	26372
    6	122907
    7	803565
    8	4394863
Writing mesh to time 3
Wrote mesh in = 82.62 s.
Layers added in = 82.62 s.
Checking final mesh ...
Checking faces in error :
    faces with interpolation weights (0..1)  < 0           : 0
    faces with volume ratio of neighbour cells < 0         : 0
Finished meshing without any errors
Finished meshing in = 698.65 s.
End

